*
* WL | Delft Hydraulics, Delft3D-RGFGRID, Version 4.15.03.00, win32, Release, Nov  9 2007, 23:25:3
* File creation date: 18:08:39, 04-05-2009
*
Coordinate System = Cartesian
     301     226
 0 0 0
 ETA=    1   1.00000000000000000E+00   2.60000000000000000E+01   5.10000000000000000E+01   7.60000000000000000E+01   1.01000000000000000E+02
             1.26000000000000000E+02   1.51000000000000000E+02   1.76000000000000000E+02   2.01000000000000000E+02   2.26000000000000000E+02
             2.51000000000000000E+02   2.76000000000000000E+02   3.01000000000000000E+02   3.26000000000000000E+02   3.51000000000000000E+02
             3.76000000000000000E+02   4.01000000000000000E+02   4.26000000000000000E+02   4.51000000000000000E+02   4.76000000000000000E+02
             5.01000000000000000E+02   5.26000000000000000E+02   5.51000000000000000E+02   5.76000000000000000E+02   6.01000000000000000E+02
             6.26000000000000000E+02   6.51000000000000000E+02   6.76000000000000000E+02   7.01000000000000000E+02   7.26000000000000000E+02
             7.51000000000000000E+02   7.76000000000000000E+02   8.01000000000000000E+02   8.26000000000000000E+02   8.51000000000000000E+02
             8.76000000000000000E+02   9.01000000000000000E+02   9.26000000000000000E+02   9.51000000000000000E+02   9.76000000000000000E+02
             1.00100000000000000E+03   1.02600000000000000E+03   1.05100000000000000E+03   1.07600000000000000E+03   1.10100000000000000E+03
             1.12600000000000000E+03   1.15100000000000000E+03   1.17600000000000000E+03   1.20100000000000000E+03   1.22600000000000000E+03
             1.25100000000000000E+03   1.27600000000000000E+03   1.30100000000000000E+03   1.32600000000000000E+03   1.35100000000000000E+03
             1.37600000000000000E+03   1.40100000000000000E+03   1.42600000000000000E+03   1.45100000000000000E+03   1.47600000000000000E+03
             1.50100000000000000E+03   1.52600000000000000E+03   1.55100000000000000E+03   1.57600000000000000E+03   1.60100000000000000E+03
             1.62600000000000000E+03   1.65100000000000000E+03   1.67600000000000000E+03   1.70100000000000000E+03   1.72600000000000000E+03
             1.75100000000000000E+03   1.77600000000000000E+03   1.80100000000000000E+03   1.82600000000000000E+03   1.85100000000000000E+03
             1.87600000000000000E+03   1.90100000000000000E+03   1.92600000000000000E+03   1.95100000000000000E+03   1.97600000000000000E+03
             2.00100000000000000E+03   2.02600000000000000E+03   2.05100000000000000E+03   2.07600000000000000E+03   2.10100000000000000E+03
             2.12600000000000000E+03   2.15100000000000000E+03   2.17600000000000000E+03   2.20100000000000000E+03   2.22600000000000000E+03
             2.25100000000000000E+03   2.27600000000000000E+03   2.30100000000000000E+03   2.32600000000000000E+03   2.35100000000000000E+03
             2.37600000000000000E+03   2.40100000000000000E+03   2.42600000000000000E+03   2.45100000000000000E+03   2.47600000000000000E+03
             2.50100000000000000E+03   2.52600000000000000E+03   2.55100000000000000E+03   2.57600000000000000E+03   2.60100000000000000E+03
             2.62600000000000000E+03   2.65100000000000000E+03   2.67600000000000000E+03   2.70100000000000000E+03   2.72600000000000000E+03
             2.75100000000000000E+03   2.77600000000000000E+03   2.80100000000000000E+03   2.82600000000000000E+03   2.85100000000000000E+03
             2.87600000000000000E+03   2.90100000000000000E+03   2.92600000000000000E+03   2.95100000000000000E+03   2.97600000000000000E+03
             3.00100000000000000E+03   3.02600000000000000E+03   3.05100000000000000E+03   3.07600000000000000E+03   3.10100000000000000E+03
             3.12600000000000000E+03   3.15100000000000000E+03   3.17600000000000000E+03   3.20100000000000000E+03   3.22600000000000000E+03
             3.25100000000000000E+03   3.27600000000000000E+03   3.30100000000000000E+03   3.32600000000000000E+03   3.35100000000000000E+03
             3.37600000000000000E+03   3.40100000000000000E+03   3.42600000000000000E+03   3.45100000000000000E+03   3.47600000000000000E+03
             3.50100000000000000E+03   3.52600000000000000E+03   3.55100000000000000E+03   3.57600000000000000E+03   3.60100000000000000E+03
             3.62600000000000000E+03   3.65100000000000000E+03   3.67600000000000000E+03   3.70100000000000000E+03   3.72600000000000000E+03
             3.75100000000000000E+03   3.77600000000000000E+03   3.80100000000000000E+03   3.82600000000000000E+03   3.85100000000000000E+03
             3.87600000000000000E+03   3.90100000000000000E+03   3.92600000000000000E+03   3.95100000000000000E+03   3.97600000000000000E+03
             4.00100000000000000E+03   4.02600000000000000E+03   4.05100000000000000E+03   4.07600000000000000E+03   4.10100000000000000E+03
             4.12600000000000000E+03   4.15100000000000000E+03   4.17600000000000000E+03   4.20100000000000000E+03   4.22600000000000000E+03
             4.25100000000000000E+03   4.27600000000000000E+03   4.30100000000000000E+03   4.32600000000000000E+03   4.35100000000000000E+03
             4.37600000000000000E+03   4.40100000000000000E+03   4.42600000000000000E+03   4.45100000000000000E+03   4.47600000000000000E+03
             4.50100000000000000E+03   4.52600000000000000E+03   4.55100000000000000E+03   4.57600000000000000E+03   4.60100000000000000E+03
             4.62600000000000000E+03   4.65100000000000000E+03   4.67600000000000000E+03   4.70100000000000000E+03   4.72600000000000000E+03
             4.75100000000000000E+03   4.77600000000000000E+03   4.80100000000000000E+03   4.82600000000000000E+03   4.85100000000000000E+03
             4.87600000000000000E+03   4.90100000000000000E+03   4.92600000000000000E+03   4.95100000000000000E+03   4.97600000000000000E+03
             5.00100000000000000E+03   5.02600000000000000E+03   5.05100000000000000E+03   5.07600000000000000E+03   5.10100000000000000E+03
             5.12600000000000000E+03   5.15100000000000000E+03   5.17600000000000000E+03   5.20100000000000000E+03   5.22600000000000000E+03
             5.25100000000000000E+03   5.27600000000000000E+03   5.30100000000000000E+03   5.32600000000000000E+03   5.35100000000000000E+03
             5.37600000000000000E+03   5.40100000000000000E+03   5.42600000000000000E+03   5.45100000000000000E+03   5.47600000000000000E+03
             5.50100000000000000E+03   5.52600000000000000E+03   5.55100000000000000E+03   5.57600000000000000E+03   5.60100000000000000E+03
             5.62600000000000000E+03   5.65100000000000000E+03   5.67600000000000000E+03   5.70100000000000000E+03   5.72600000000000000E+03
             5.75100000000000000E+03   5.77600000000000000E+03   5.80100000000000000E+03   5.82600000000000000E+03   5.85100000000000000E+03
             5.87600000000000000E+03   5.90100000000000000E+03   5.92600000000000000E+03   5.95100000000000000E+03   5.97600000000000000E+03
             6.00100000000000000E+03   6.02600000000000000E+03   6.05100000000000000E+03   6.07600000000000000E+03   6.10100000000000000E+03
             6.12600000000000000E+03   6.15100000000000000E+03   6.17600000000000000E+03   6.20100000000000000E+03   6.22600000000000000E+03
             6.25100000000000000E+03   6.27600000000000000E+03   6.30100000000000000E+03   6.32600000000000000E+03   6.35100000000000000E+03
             6.37600000000000000E+03   6.40100000000000000E+03   6.42600000000000000E+03   6.45100000000000000E+03   6.47600000000000000E+03
             6.50100000000000000E+03   6.52600000000000000E+03   6.55100000000000000E+03   6.57600000000000000E+03   6.60100000000000000E+03
             6.62600000000000000E+03   6.65100000000000000E+03   6.67600000000000000E+03   6.70100000000000000E+03   6.72600000000000000E+03
             6.75100000000000000E+03   6.77600000000000000E+03   6.80100000000000000E+03   6.82600000000000000E+03   6.85100000000000000E+03
             6.87600000000000000E+03   6.90100000000000000E+03   6.92600000000000000E+03   6.95100000000000000E+03   6.97600000000000000E+03
             7.00100000000000000E+03   7.02600000000000000E+03   7.05100000000000000E+03   7.07600000000000000E+03   7.10100000000000000E+03
             7.12600000000000000E+03   7.15100000000000000E+03   7.17600000000000000E+03   7.20100000000000000E+03   7.22600000000000000E+03
             7.25100000000000000E+03   7.27600000000000000E+03   7.30100000000000000E+03   7.32600000000000000E+03   7.35100000000000000E+03
             7.37600000000000000E+03   7.40100000000000000E+03   7.42600000000000000E+03   7.45100000000000000E+03   7.47600000000000000E+03
             7.50100000000000000E+03
 ETA=    2   1.00000000000000000E+00   2.60000000000000000E+01   5.10000000000000000E+01   7.60000000000000000E+01   1.01000000000000000E+02
             1.26000000000000000E+02   1.51000000000000000E+02   1.76000000000000000E+02   2.01000000000000000E+02   2.26000000000000000E+02
             2.51000000000000000E+02   2.76000000000000000E+02   3.01000000000000000E+02   3.26000000000000000E+02   3.51000000000000000E+02
             3.76000000000000000E+02   4.01000000000000000E+02   4.26000000000000000E+02   4.51000000000000000E+02   4.76000000000000000E+02
             5.01000000000000000E+02   5.26000000000000000E+02   5.51000000000000000E+02   5.76000000000000000E+02   6.01000000000000000E+02
             6.26000000000000000E+02   6.51000000000000000E+02   6.76000000000000000E+02   7.01000000000000000E+02   7.26000000000000000E+02
             7.51000000000000000E+02   7.76000000000000000E+02   8.01000000000000000E+02   8.26000000000000000E+02   8.51000000000000000E+02
             8.76000000000000000E+02   9.01000000000000000E+02   9.26000000000000000E+02   9.51000000000000000E+02   9.76000000000000000E+02
             1.00100000000000000E+03   1.02600000000000000E+03   1.05100000000000000E+03   1.07600000000000000E+03   1.10100000000000000E+03
             1.12600000000000000E+03   1.15100000000000000E+03   1.17600000000000000E+03   1.20100000000000000E+03   1.22600000000000000E+03
             1.25100000000000000E+03   1.27600000000000000E+03   1.30100000000000000E+03   1.32600000000000000E+03   1.35100000000000000E+03
             1.37600000000000000E+03   1.40100000000000000E+03   1.42600000000000000E+03   1.45100000000000000E+03   1.47600000000000000E+03
             1.50100000000000000E+03   1.52600000000000000E+03   1.55100000000000000E+03   1.57600000000000000E+03   1.60100000000000000E+03
             1.62600000000000000E+03   1.65100000000000000E+03   1.67600000000000000E+03   1.70100000000000000E+03   1.72600000000000000E+03
             1.75100000000000000E+03   1.77600000000000000E+03   1.80100000000000000E+03   1.82600000000000000E+03   1.85100000000000000E+03
             1.87600000000000000E+03   1.90100000000000000E+03   1.92600000000000000E+03   1.95100000000000000E+03   1.97600000000000000E+03
             2.00100000000000000E+03   2.02600000000000000E+03   2.05100000000000000E+03   2.07600000000000000E+03   2.10100000000000000E+03
             2.12600000000000000E+03   2.15100000000000000E+03   2.17600000000000000E+03   2.20100000000000000E+03   2.22600000000000000E+03
             2.25100000000000000E+03   2.27600000000000000E+03   2.30100000000000000E+03   2.32600000000000000E+03   2.35100000000000000E+03
             2.37600000000000000E+03   2.40100000000000000E+03   2.42600000000000000E+03   2.45100000000000000E+03   2.47600000000000000E+03
             2.50100000000000000E+03   2.52600000000000000E+03   2.55100000000000000E+03   2.57600000000000000E+03   2.60100000000000000E+03
             2.62600000000000000E+03   2.65100000000000000E+03   2.67600000000000000E+03   2.70100000000000000E+03   2.72600000000000000E+03
             2.75100000000000000E+03   2.77600000000000000E+03   2.80100000000000000E+03   2.82600000000000000E+03   2.85100000000000000E+03
             2.87600000000000000E+03   2.90100000000000000E+03   2.92600000000000000E+03   2.95100000000000000E+03   2.97600000000000000E+03
             3.00100000000000000E+03   3.02600000000000000E+03   3.05100000000000000E+03   3.07600000000000000E+03   3.10100000000000000E+03
             3.12600000000000000E+03   3.15100000000000000E+03   3.17600000000000000E+03   3.20100000000000000E+03   3.22600000000000000E+03
             3.25100000000000000E+03   3.27600000000000000E+03   3.30100000000000000E+03   3.32600000000000000E+03   3.35100000000000000E+03
             3.37600000000000000E+03   3.40100000000000000E+03   3.42600000000000000E+03   3.45100000000000000E+03   3.47600000000000000E+03
             3.50100000000000000E+03   3.52600000000000000E+03   3.55100000000000000E+03   3.57600000000000000E+03   3.60100000000000000E+03
             3.62600000000000000E+03   3.65100000000000000E+03   3.67600000000000000E+03   3.70100000000000000E+03   3.72600000000000000E+03
             3.75100000000000000E+03   3.77600000000000000E+03   3.80100000000000000E+03   3.82600000000000000E+03   3.85100000000000000E+03
             3.87600000000000000E+03   3.90100000000000000E+03   3.92600000000000000E+03   3.95100000000000000E+03   3.97600000000000000E+03
             4.00100000000000000E+03   4.02600000000000000E+03   4.05100000000000000E+03   4.07600000000000000E+03   4.10100000000000000E+03
             4.12600000000000000E+03   4.15100000000000000E+03   4.17600000000000000E+03   4.20100000000000000E+03   4.22600000000000000E+03
             4.25100000000000000E+03   4.27600000000000000E+03   4.30100000000000000E+03   4.32600000000000000E+03   4.35100000000000000E+03
             4.37600000000000000E+03   4.40100000000000000E+03   4.42600000000000000E+03   4.45100000000000000E+03   4.47600000000000000E+03
             4.50100000000000000E+03   4.52600000000000000E+03   4.55100000000000000E+03   4.57600000000000000E+03   4.60100000000000000E+03
             4.62600000000000000E+03   4.65100000000000000E+03   4.67600000000000000E+03   4.70100000000000000E+03   4.72600000000000000E+03
             4.75100000000000000E+03   4.77600000000000000E+03   4.80100000000000000E+03   4.82600000000000000E+03   4.85100000000000000E+03
             4.87600000000000000E+03   4.90100000000000000E+03   4.92600000000000000E+03   4.95100000000000000E+03   4.97600000000000000E+03
             5.00100000000000000E+03   5.02600000000000000E+03   5.05100000000000000E+03   5.07600000000000000E+03   5.10100000000000000E+03
             5.12600000000000000E+03   5.15100000000000000E+03   5.17600000000000000E+03   5.20100000000000000E+03   5.22600000000000000E+03
             5.25100000000000000E+03   5.27600000000000000E+03   5.30100000000000000E+03   5.32600000000000000E+03   5.35100000000000000E+03
             5.37600000000000000E+03   5.40100000000000000E+03   5.42600000000000000E+03   5.45100000000000000E+03   5.47600000000000000E+03
             5.50100000000000000E+03   5.52600000000000000E+03   5.55100000000000000E+03   5.57600000000000000E+03   5.60100000000000000E+03
             5.62600000000000000E+03   5.65100000000000000E+03   5.67600000000000000E+03   5.70100000000000000E+03   5.72600000000000000E+03
             5.75100000000000000E+03   5.77600000000000000E+03   5.80100000000000000E+03   5.82600000000000000E+03   5.85100000000000000E+03
             5.87600000000000000E+03   5.90100000000000000E+03   5.92600000000000000E+03   5.95100000000000000E+03   5.97600000000000000E+03
             6.00100000000000000E+03   6.02600000000000000E+03   6.05100000000000000E+03   6.07600000000000000E+03   6.10100000000000000E+03
             6.12600000000000000E+03   6.15100000000000000E+03   6.17600000000000000E+03   6.20100000000000000E+03   6.22600000000000000E+03
             6.25100000000000000E+03   6.27600000000000000E+03   6.30100000000000000E+03   6.32600000000000000E+03   6.35100000000000000E+03
             6.37600000000000000E+03   6.40100000000000000E+03   6.42600000000000000E+03   6.45100000000000000E+03   6.47600000000000000E+03
             6.50100000000000000E+03   6.52600000000000000E+03   6.55100000000000000E+03   6.57600000000000000E+03   6.60100000000000000E+03
             6.62600000000000000E+03   6.65100000000000000E+03   6.67600000000000000E+03   6.70100000000000000E+03   6.72600000000000000E+03
             6.75100000000000000E+03   6.77600000000000000E+03   6.80100000000000000E+03   6.82600000000000000E+03   6.85100000000000000E+03
             6.87600000000000000E+03   6.90100000000000000E+03   6.92600000000000000E+03   6.95100000000000000E+03   6.97600000000000000E+03
             7.00100000000000000E+03   7.02600000000000000E+03   7.05100000000000000E+03   7.07600000000000000E+03   7.10100000000000000E+03
             7.12600000000000000E+03   7.15100000000000000E+03   7.17600000000000000E+03   7.20100000000000000E+03   7.22600000000000000E+03
             7.25100000000000000E+03   7.27600000000000000E+03   7.30100000000000000E+03   7.32600000000000000E+03   7.35100000000000000E+03
             7.37600000000000000E+03   7.40100000000000000E+03   7.42600000000000000E+03   7.45100000000000000E+03   7.47600000000000000E+03
             7.50100000000000000E+03
 ETA=    3   1.00000000000000000E+00   2.60000000000000000E+01   5.10000000000000000E+01   7.60000000000000000E+01   1.01000000000000000E+02
             1.26000000000000000E+02   1.51000000000000000E+02   1.76000000000000000E+02   2.01000000000000000E+02   2.26000000000000000E+02
             2.51000000000000000E+02   2.76000000000000000E+02   3.01000000000000000E+02   3.26000000000000000E+02   3.51000000000000000E+02
             3.76000000000000000E+02   4.01000000000000000E+02   4.26000000000000000E+02   4.51000000000000000E+02   4.76000000000000000E+02
             5.01000000000000000E+02   5.26000000000000000E+02   5.51000000000000000E+02   5.76000000000000000E+02   6.01000000000000000E+02
             6.26000000000000000E+02   6.51000000000000000E+02   6.76000000000000000E+02   7.01000000000000000E+02   7.26000000000000000E+02
             7.51000000000000000E+02   7.76000000000000000E+02   8.01000000000000000E+02   8.26000000000000000E+02   8.51000000000000000E+02
             8.76000000000000000E+02   9.01000000000000000E+02   9.26000000000000000E+02   9.51000000000000000E+02   9.76000000000000000E+02
             1.00100000000000000E+03   1.02600000000000000E+03   1.05100000000000000E+03   1.07600000000000000E+03   1.10100000000000000E+03
             1.12600000000000000E+03   1.15100000000000000E+03   1.17600000000000000E+03   1.20100000000000000E+03   1.22600000000000000E+03
             1.25100000000000000E+03   1.27600000000000000E+03   1.30100000000000000E+03   1.32600000000000000E+03   1.35100000000000000E+03
             1.37600000000000000E+03   1.40100000000000000E+03   1.42600000000000000E+03   1.45100000000000000E+03   1.47600000000000000E+03
             1.50100000000000000E+03   1.52600000000000000E+03   1.55100000000000000E+03   1.57600000000000000E+03   1.60100000000000000E+03
             1.62600000000000000E+03   1.65100000000000000E+03   1.67600000000000000E+03   1.70100000000000000E+03   1.72600000000000000E+03
             1.75100000000000000E+03   1.77600000000000000E+03   1.80100000000000000E+03   1.82600000000000000E+03   1.85100000000000000E+03
             1.87600000000000000E+03   1.90100000000000000E+03   1.92600000000000000E+03   1.95100000000000000E+03   1.97600000000000000E+03
             2.00100000000000000E+03   2.02600000000000000E+03   2.05100000000000000E+03   2.07600000000000000E+03   2.10100000000000000E+03
             2.12600000000000000E+03   2.15100000000000000E+03   2.17600000000000000E+03   2.20100000000000000E+03   2.22600000000000000E+03
             2.25100000000000000E+03   2.27600000000000000E+03   2.30100000000000000E+03   2.32600000000000000E+03   2.35100000000000000E+03
             2.37600000000000000E+03   2.40100000000000000E+03   2.42600000000000000E+03   2.45100000000000000E+03   2.47600000000000000E+03
             2.50100000000000000E+03   2.52600000000000000E+03   2.55100000000000000E+03   2.57600000000000000E+03   2.60100000000000000E+03
             2.62600000000000000E+03   2.65100000000000000E+03   2.67600000000000000E+03   2.70100000000000000E+03   2.72600000000000000E+03
             2.75100000000000000E+03   2.77600000000000000E+03   2.80100000000000000E+03   2.82600000000000000E+03   2.85100000000000000E+03
             2.87600000000000000E+03   2.90100000000000000E+03   2.92600000000000000E+03   2.95100000000000000E+03   2.97600000000000000E+03
             3.00100000000000000E+03   3.02600000000000000E+03   3.05100000000000000E+03   3.07600000000000000E+03   3.10100000000000000E+03
             3.12600000000000000E+03   3.15100000000000000E+03   3.17600000000000000E+03   3.20100000000000000E+03   3.22600000000000000E+03
             3.25100000000000000E+03   3.27600000000000000E+03   3.30100000000000000E+03   3.32600000000000000E+03   3.35100000000000000E+03
             3.37600000000000000E+03   3.40100000000000000E+03   3.42600000000000000E+03   3.45100000000000000E+03   3.47600000000000000E+03
             3.50100000000000000E+03   3.52600000000000000E+03   3.55100000000000000E+03   3.57600000000000000E+03   3.60100000000000000E+03
             3.62600000000000000E+03   3.65100000000000000E+03   3.67600000000000000E+03   3.70100000000000000E+03   3.72600000000000000E+03
             3.75100000000000000E+03   3.77600000000000000E+03   3.80100000000000000E+03   3.82600000000000000E+03   3.85100000000000000E+03
             3.87600000000000000E+03   3.90100000000000000E+03   3.92600000000000000E+03   3.95100000000000000E+03   3.97600000000000000E+03
             4.00100000000000000E+03   4.02600000000000000E+03   4.05100000000000000E+03   4.07600000000000000E+03   4.10100000000000000E+03
             4.12600000000000000E+03   4.15100000000000000E+03   4.17600000000000000E+03   4.20100000000000000E+03   4.22600000000000000E+03
             4.25100000000000000E+03   4.27600000000000000E+03   4.30100000000000000E+03   4.32600000000000000E+03   4.35100000000000000E+03
             4.37600000000000000E+03   4.40100000000000000E+03   4.42600000000000000E+03   4.45100000000000000E+03   4.47600000000000000E+03
             4.50100000000000000E+03   4.52600000000000000E+03   4.55100000000000000E+03   4.57600000000000000E+03   4.60100000000000000E+03
             4.62600000000000000E+03   4.65100000000000000E+03   4.67600000000000000E+03   4.70100000000000000E+03   4.72600000000000000E+03
             4.75100000000000000E+03   4.77600000000000000E+03   4.80100000000000000E+03   4.82600000000000000E+03   4.85100000000000000E+03
             4.87600000000000000E+03   4.90100000000000000E+03   4.92600000000000000E+03   4.95100000000000000E+03   4.97600000000000000E+03
             5.00100000000000000E+03   5.02600000000000000E+03   5.05100000000000000E+03   5.07600000000000000E+03   5.10100000000000000E+03
             5.12600000000000000E+03   5.15100000000000000E+03   5.17600000000000000E+03   5.20100000000000000E+03   5.22600000000000000E+03
             5.25100000000000000E+03   5.27600000000000000E+03   5.30100000000000000E+03   5.32600000000000000E+03   5.35100000000000000E+03
             5.37600000000000000E+03   5.40100000000000000E+03   5.42600000000000000E+03   5.45100000000000000E+03   5.47600000000000000E+03
             5.50100000000000000E+03   5.52600000000000000E+03   5.55100000000000000E+03   5.57600000000000000E+03   5.60100000000000000E+03
             5.62600000000000000E+03   5.65100000000000000E+03   5.67600000000000000E+03   5.70100000000000000E+03   5.72600000000000000E+03
             5.75100000000000000E+03   5.77600000000000000E+03   5.80100000000000000E+03   5.82600000000000000E+03   5.85100000000000000E+03
             5.87600000000000000E+03   5.90100000000000000E+03   5.92600000000000000E+03   5.95100000000000000E+03   5.97600000000000000E+03
             6.00100000000000000E+03   6.02600000000000000E+03   6.05100000000000000E+03   6.07600000000000000E+03   6.10100000000000000E+03
             6.12600000000000000E+03   6.15100000000000000E+03   6.17600000000000000E+03   6.20100000000000000E+03   6.22600000000000000E+03
             6.25100000000000000E+03   6.27600000000000000E+03   6.30100000000000000E+03   6.32600000000000000E+03   6.35100000000000000E+03
             6.37600000000000000E+03   6.40100000000000000E+03   6.42600000000000000E+03   6.45100000000000000E+03   6.47600000000000000E+03
             6.50100000000000000E+03   6.52600000000000000E+03   6.55100000000000000E+03   6.57600000000000000E+03   6.60100000000000000E+03
             6.62600000000000000E+03   6.65100000000000000E+03   6.67600000000000000E+03   6.70100000000000000E+03   6.72600000000000000E+03
             6.75100000000000000E+03   6.77600000000000000E+03   6.80100000000000000E+03   6.82600000000000000E+03   6.85100000000000000E+03
             6.87600000000000000E+03   6.90100000000000000E+03   6.92600000000000000E+03   6.95100000000000000E+03   6.97600000000000000E+03
             7.00100000000000000E+03   7.02600000000000000E+03   7.05100000000000000E+03   7.07600000000000000E+03   7.10100000000000000E+03
             7.12600000000000000E+03   7.15100000000000000E+03   7.17600000000000000E+03   7.20100000000000000E+03   7.22600000000000000E+03
             7.25100000000000000E+03   7.27600000000000000E+03   7.30100000000000000E+03   7.32600000000000000E+03   7.35100000000000000E+03
             7.37600000000000000E+03   7.40100000000000000E+03   7.42600000000000000E+03   7.45100000000000000E+03   7.47600000000000000E+03
             7.50100000000000000E+03
 ETA=    4   1.00000000000000000E+00   2.60000000000000000E+01   5.10000000000000000E+01   7.60000000000000000E+01   1.01000000000000000E+02
             1.26000000000000000E+02   1.51000000000000000E+02   1.76000000000000000E+02   2.01000000000000000E+02   2.26000000000000000E+02
             2.51000000000000000E+02   2.76000000000000000E+02   3.01000000000000000E+02   3.26000000000000000E+02   3.51000000000000000E+02
             3.76000000000000000E+02   4.01000000000000000E+02   4.26000000000000000E+02   4.51000000000000000E+02   4.76000000000000000E+02
             5.01000000000000000E+02   5.26000000000000000E+02   5.51000000000000000E+02   5.76000000000000000E+02   6.01000000000000000E+02
             6.26000000000000000E+02   6.51000000000000000E+02   6.76000000000000000E+02   7.01000000000000000E+02   7.26000000000000000E+02
             7.51000000000000000E+02   7.76000000000000000E+02   8.01000000000000000E+02   8.26000000000000000E+02   8.51000000000000000E+02
             8.76000000000000000E+02   9.01000000000000000E+02   9.26000000000000000E+02   9.51000000000000000E+02   9.76000000000000000E+02
             1.00100000000000000E+03   1.02600000000000000E+03   1.05100000000000000E+03   1.07600000000000000E+03   1.10100000000000000E+03
             1.12600000000000000E+03   1.15100000000000000E+03   1.17600000000000000E+03   1.20100000000000000E+03   1.22600000000000000E+03
             1.25100000000000000E+03   1.27600000000000000E+03   1.30100000000000000E+03   1.32600000000000000E+03   1.35100000000000000E+03
             1.37600000000000000E+03   1.40100000000000000E+03   1.42600000000000000E+03   1.45100000000000000E+03   1.47600000000000000E+03
             1.50100000000000000E+03   1.52600000000000000E+03   1.55100000000000000E+03   1.57600000000000000E+03   1.60100000000000000E+03
             1.62600000000000000E+03   1.65100000000000000E+03   1.67600000000000000E+03   1.70100000000000000E+03   1.72600000000000000E+03
             1.75100000000000000E+03   1.77600000000000000E+03   1.80100000000000000E+03   1.82600000000000000E+03   1.85100000000000000E+03
             1.87600000000000000E+03   1.90100000000000000E+03   1.92600000000000000E+03   1.95100000000000000E+03   1.97600000000000000E+03
             2.00100000000000000E+03   2.02600000000000000E+03   2.05100000000000000E+03   2.07600000000000000E+03   2.10100000000000000E+03
             2.12600000000000000E+03   2.15100000000000000E+03   2.17600000000000000E+03   2.20100000000000000E+03   2.22600000000000000E+03
             2.25100000000000000E+03   2.27600000000000000E+03   2.30100000000000000E+03   2.32600000000000000E+03   2.35100000000000000E+03
             2.37600000000000000E+03   2.40100000000000000E+03   2.42600000000000000E+03   2.45100000000000000E+03   2.47600000000000000E+03
             2.50100000000000000E+03   2.52600000000000000E+03   2.55100000000000000E+03   2.57600000000000000E+03   2.60100000000000000E+03
             2.62600000000000000E+03   2.65100000000000000E+03   2.67600000000000000E+03   2.70100000000000000E+03   2.72600000000000000E+03
             2.75100000000000000E+03   2.77600000000000000E+03   2.80100000000000000E+03   2.82600000000000000E+03   2.85100000000000000E+03
             2.87600000000000000E+03   2.90100000000000000E+03   2.92600000000000000E+03   2.95100000000000000E+03   2.97600000000000000E+03
             3.00100000000000000E+03   3.02600000000000000E+03   3.05100000000000000E+03   3.07600000000000000E+03   3.10100000000000000E+03
             3.12600000000000000E+03   3.15100000000000000E+03   3.17600000000000000E+03   3.20100000000000000E+03   3.22600000000000000E+03
             3.25100000000000000E+03   3.27600000000000000E+03   3.30100000000000000E+03   3.32600000000000000E+03   3.35100000000000000E+03
             3.37600000000000000E+03   3.40100000000000000E+03   3.42600000000000000E+03   3.45100000000000000E+03   3.47600000000000000E+03
             3.50100000000000000E+03   3.52600000000000000E+03   3.55100000000000000E+03   3.57600000000000000E+03   3.60100000000000000E+03
             3.62600000000000000E+03   3.65100000000000000E+03   3.67600000000000000E+03   3.70100000000000000E+03   3.72600000000000000E+03
             3.75100000000000000E+03   3.77600000000000000E+03   3.80100000000000000E+03   3.82600000000000000E+03   3.85100000000000000E+03
             3.87600000000000000E+03   3.90100000000000000E+03   3.92600000000000000E+03   3.95100000000000000E+03   3.97600000000000000E+03
             4.00100000000000000E+03   4.02600000000000000E+03   4.05100000000000000E+03   4.07600000000000000E+03   4.10100000000000000E+03
             4.12600000000000000E+03   4.15100000000000000E+03   4.17600000000000000E+03   4.20100000000000000E+03   4.22600000000000000E+03
             4.25100000000000000E+03   4.27600000000000000E+03   4.30100000000000000E+03   4.32600000000000000E+03   4.35100000000000000E+03
             4.37600000000000000E+03   4.40100000000000000E+03   4.42600000000000000E+03   4.45100000000000000E+03   4.47600000000000000E+03
             4.50100000000000000E+03   4.52600000000000000E+03   4.55100000000000000E+03   4.57600000000000000E+03   4.60100000000000000E+03
             4.62600000000000000E+03   4.65100000000000000E+03   4.67600000000000000E+03   4.70100000000000000E+03   4.72600000000000000E+03
             4.75100000000000000E+03   4.77600000000000000E+03   4.80100000000000000E+03   4.82600000000000000E+03   4.85100000000000000E+03
             4.87600000000000000E+03   4.90100000000000000E+03   4.92600000000000000E+03   4.95100000000000000E+03   4.97600000000000000E+03
             5.00100000000000000E+03   5.02600000000000000E+03   5.05100000000000000E+03   5.07600000000000000E+03   5.10100000000000000E+03
             5.12600000000000000E+03   5.15100000000000000E+03   5.17600000000000000E+03   5.20100000000000000E+03   5.22600000000000000E+03
             5.25100000000000000E+03   5.27600000000000000E+03   5.30100000000000000E+03   5.32600000000000000E+03   5.35100000000000000E+03
             5.37600000000000000E+03   5.40100000000000000E+03   5.42600000000000000E+03   5.45100000000000000E+03   5.47600000000000000E+03
             5.50100000000000000E+03   5.52600000000000000E+03   5.55100000000000000E+03   5.57600000000000000E+03   5.60100000000000000E+03
             5.62600000000000000E+03   5.65100000000000000E+03   5.67600000000000000E+03   5.70100000000000000E+03   5.72600000000000000E+03
             5.75100000000000000E+03   5.77600000000000000E+03   5.80100000000000000E+03   5.82600000000000000E+03   5.85100000000000000E+03
             5.87600000000000000E+03   5.90100000000000000E+03   5.92600000000000000E+03   5.95100000000000000E+03   5.97600000000000000E+03
             6.00100000000000000E+03   6.02600000000000000E+03   6.05100000000000000E+03   6.07600000000000000E+03   6.10100000000000000E+03
             6.12600000000000000E+03   6.15100000000000000E+03   6.17600000000000000E+03   6.20100000000000000E+03   6.22600000000000000E+03
             6.25100000000000000E+03   6.27600000000000000E+03   6.30100000000000000E+03   6.32600000000000000E+03   6.35100000000000000E+03
             6.37600000000000000E+03   6.40100000000000000E+03   6.42600000000000000E+03   6.45100000000000000E+03   6.47600000000000000E+03
             6.50100000000000000E+03   6.52600000000000000E+03   6.55100000000000000E+03   6.57600000000000000E+03   6.60100000000000000E+03
             6.62600000000000000E+03   6.65100000000000000E+03   6.67600000000000000E+03   6.70100000000000000E+03   6.72600000000000000E+03
             6.75100000000000000E+03   6.77600000000000000E+03   6.80100000000000000E+03   6.82600000000000000E+03   6.85100000000000000E+03
             6.87600000000000000E+03   6.90100000000000000E+03   6.92600000000000000E+03   6.95100000000000000E+03   6.97600000000000000E+03
             7.00100000000000000E+03   7.02600000000000000E+03   7.05100000000000000E+03   7.07600000000000000E+03   7.10100000000000000E+03
             7.12600000000000000E+03   7.15100000000000000E+03   7.17600000000000000E+03   7.20100000000000000E+03   7.22600000000000000E+03
             7.25100000000000000E+03   7.27600000000000000E+03   7.30100000000000000E+03   7.32600000000000000E+03   7.35100000000000000E+03
             7.37600000000000000E+03   7.40100000000000000E+03   7.42600000000000000E+03   7.45100000000000000E+03   7.47600000000000000E+03
             7.50100000000000000E+03
 ETA=    5   1.00000000000000000E+00   2.60000000000000000E+01   5.10000000000000000E+01   7.60000000000000000E+01   1.01000000000000000E+02
             1.26000000000000000E+02   1.51000000000000000E+02   1.76000000000000000E+02   2.01000000000000000E+02   2.26000000000000000E+02
             2.51000000000000000E+02   2.76000000000000000E+02   3.01000000000000000E+02   3.26000000000000000E+02   3.51000000000000000E+02
             3.76000000000000000E+02   4.01000000000000000E+02   4.26000000000000000E+02   4.51000000000000000E+02   4.76000000000000000E+02
             5.01000000000000000E+02   5.26000000000000000E+02   5.51000000000000000E+02   5.76000000000000000E+02   6.01000000000000000E+02
             6.26000000000000000E+02   6.51000000000000000E+02   6.76000000000000000E+02   7.01000000000000000E+02   7.26000000000000000E+02
             7.51000000000000000E+02   7.76000000000000000E+02   8.01000000000000000E+02   8.26000000000000000E+02   8.51000000000000000E+02
             8.76000000000000000E+02   9.01000000000000000E+02   9.26000000000000000E+02   9.51000000000000000E+02   9.76000000000000000E+02
             1.00100000000000000E+03   1.02600000000000000E+03   1.05100000000000000E+03   1.07600000000000000E+03   1.10100000000000000E+03
             1.12600000000000000E+03   1.15100000000000000E+03   1.17600000000000000E+03   1.20100000000000000E+03   1.22600000000000000E+03
             1.25100000000000000E+03   1.27600000000000000E+03   1.30100000000000000E+03   1.32600000000000000E+03   1.35100000000000000E+03
             1.37600000000000000E+03   1.40100000000000000E+03   1.42600000000000000E+03   1.45100000000000000E+03   1.47600000000000000E+03
             1.50100000000000000E+03   1.52600000000000000E+03   1.55100000000000000E+03   1.57600000000000000E+03   1.60100000000000000E+03
             1.62600000000000000E+03   1.65100000000000000E+03   1.67600000000000000E+03   1.70100000000000000E+03   1.72600000000000000E+03
             1.75100000000000000E+03   1.77600000000000000E+03   1.80100000000000000E+03   1.82600000000000000E+03   1.85100000000000000E+03
             1.87600000000000000E+03   1.90100000000000000E+03   1.92600000000000000E+03   1.95100000000000000E+03   1.97600000000000000E+03
             2.00100000000000000E+03   2.02600000000000000E+03   2.05100000000000000E+03   2.07600000000000000E+03   2.10100000000000000E+03
             2.12600000000000000E+03   2.15100000000000000E+03   2.17600000000000000E+03   2.20100000000000000E+03   2.22600000000000000E+03
             2.25100000000000000E+03   2.27600000000000000E+03   2.30100000000000000E+03   2.32600000000000000E+03   2.35100000000000000E+03
             2.37600000000000000E+03   2.40100000000000000E+03   2.42600000000000000E+03   2.45100000000000000E+03   2.47600000000000000E+03
             2.50100000000000000E+03   2.52600000000000000E+03   2.55100000000000000E+03   2.57600000000000000E+03   2.60100000000000000E+03
             2.62600000000000000E+03   2.65100000000000000E+03   2.67600000000000000E+03   2.70100000000000000E+03   2.72600000000000000E+03
             2.75100000000000000E+03   2.77600000000000000E+03   2.80100000000000000E+03   2.82600000000000000E+03   2.85100000000000000E+03
             2.87600000000000000E+03   2.90100000000000000E+03   2.92600000000000000E+03   2.95100000000000000E+03   2.97600000000000000E+03
             3.00100000000000000E+03   3.02600000000000000E+03   3.05100000000000000E+03   3.07600000000000000E+03   3.10100000000000000E+03
             3.12600000000000000E+03   3.15100000000000000E+03   3.17600000000000000E+03   3.20100000000000000E+03   3.22600000000000000E+03
             3.25100000000000000E+03   3.27600000000000000E+03   3.30100000000000000E+03   3.32600000000000000E+03   3.35100000000000000E+03
             3.37600000000000000E+03   3.40100000000000000E+03   3.42600000000000000E+03   3.45100000000000000E+03   3.47600000000000000E+03
             3.50100000000000000E+03   3.52600000000000000E+03   3.55100000000000000E+03   3.57600000000000000E+03   3.60100000000000000E+03
             3.62600000000000000E+03   3.65100000000000000E+03   3.67600000000000000E+03   3.70100000000000000E+03   3.72600000000000000E+03
             3.75100000000000000E+03   3.77600000000000000E+03   3.80100000000000000E+03   3.82600000000000000E+03   3.85100000000000000E+03
             3.87600000000000000E+03   3.90100000000000000E+03   3.92600000000000000E+03   3.95100000000000000E+03   3.97600000000000000E+03
             4.00100000000000000E+03   4.02600000000000000E+03   4.05100000000000000E+03   4.07600000000000000E+03   4.10100000000000000E+03
             4.12600000000000000E+03   4.15100000000000000E+03   4.17600000000000000E+03   4.20100000000000000E+03   4.22600000000000000E+03
             4.25100000000000000E+03   4.27600000000000000E+03   4.30100000000000000E+03   4.32600000000000000E+03   4.35100000000000000E+03
             4.37600000000000000E+03   4.40100000000000000E+03   4.42600000000000000E+03   4.45100000000000000E+03   4.47600000000000000E+03
             4.50100000000000000E+03   4.52600000000000000E+03   4.55100000000000000E+03   4.57600000000000000E+03   4.60100000000000000E+03
             4.62600000000000000E+03   4.65100000000000000E+03   4.67600000000000000E+03   4.70100000000000000E+03   4.72600000000000000E+03
             4.75100000000000000E+03   4.77600000000000000E+03   4.80100000000000000E+03   4.82600000000000000E+03   4.85100000000000000E+03
             4.87600000000000000E+03   4.90100000000000000E+03   4.92600000000000000E+03   4.95100000000000000E+03   4.97600000000000000E+03
             5.00100000000000000E+03   5.02600000000000000E+03   5.05100000000000000E+03   5.07600000000000000E+03   5.10100000000000000E+03
             5.12600000000000000E+03   5.15100000000000000E+03   5.17600000000000000E+03   5.20100000000000000E+03   5.22600000000000000E+03
             5.25100000000000000E+03   5.27600000000000000E+03   5.30100000000000000E+03   5.32600000000000000E+03   5.35100000000000000E+03
             5.37600000000000000E+03   5.40100000000000000E+03   5.42600000000000000E+03   5.45100000000000000E+03   5.47600000000000000E+03
             5.50100000000000000E+03   5.52600000000000000E+03   5.55100000000000000E+03   5.57600000000000000E+03   5.60100000000000000E+03
             5.62600000000000000E+03   5.65100000000000000E+03   5.67600000000000000E+03   5.70100000000000000E+03   5.72600000000000000E+03
             5.75100000000000000E+03   5.77600000000000000E+03   5.80100000000000000E+03   5.82600000000000000E+03   5.85100000000000000E+03
             5.87600000000000000E+03   5.90100000000000000E+03   5.92600000000000000E+03   5.95100000000000000E+03   5.97600000000000000E+03
             6.00100000000000000E+03   6.02600000000000000E+03   6.05100000000000000E+03   6.07600000000000000E+03   6.10100000000000000E+03
             6.12600000000000000E+03   6.15100000000000000E+03   6.17600000000000000E+03   6.20100000000000000E+03   6.22600000000000000E+03
             6.25100000000000000E+03   6.27600000000000000E+03   6.30100000000000000E+03   6.32600000000000000E+03   6.35100000000000000E+03
             6.37600000000000000E+03   6.40100000000000000E+03   6.42600000000000000E+03   6.45100000000000000E+03   6.47600000000000000E+03
             6.50100000000000000E+03   6.52600000000000000E+03   6.55100000000000000E+03   6.57600000000000000E+03   6.60100000000000000E+03
             6.62600000000000000E+03   6.65100000000000000E+03   6.67600000000000000E+03   6.70100000000000000E+03   6.72600000000000000E+03
             6.75100000000000000E+03   6.77600000000000000E+03   6.80100000000000000E+03   6.82600000000000000E+03   6.85100000000000000E+03
             6.87600000000000000E+03   6.90100000000000000E+03   6.92600000000000000E+03   6.95100000000000000E+03   6.97600000000000000E+03
             7.00100000000000000E+03   7.02600000000000000E+03   7.05100000000000000E+03   7.07600000000000000E+03   7.10100000000000000E+03
             7.12600000000000000E+03   7.15100000000000000E+03   7.17600000000000000E+03   7.20100000000000000E+03   7.22600000000000000E+03
             7.25100000000000000E+03   7.27600000000000000E+03   7.30100000000000000E+03   7.32600000000000000E+03   7.35100000000000000E+03
             7.37600000000000000E+03   7.40100000000000000E+03   7.42600000000000000E+03   7.45100000000000000E+03   7.47600000000000000E+03
             7.50100000000000000E+03
 ETA=    6   1.00000000000000000E+00   2.60000000000000000E+01   5.10000000000000000E+01   7.60000000000000000E+01   1.01000000000000000E+02
             1.26000000000000000E+02   1.51000000000000000E+02   1.76000000000000000E+02   2.01000000000000000E+02   2.26000000000000000E+02
             2.51000000000000000E+02   2.76000000000000000E+02   3.01000000000000000E+02   3.26000000000000000E+02   3.51000000000000000E+02
             3.76000000000000000E+02   4.01000000000000000E+02   4.26000000000000000E+02   4.51000000000000000E+02   4.76000000000000000E+02
             5.01000000000000000E+02   5.26000000000000000E+02   5.51000000000000000E+02   5.76000000000000000E+02   6.01000000000000000E+02
             6.26000000000000000E+02   6.51000000000000000E+02   6.76000000000000000E+02   7.01000000000000000E+02   7.26000000000000000E+02
             7.51000000000000000E+02   7.76000000000000000E+02   8.01000000000000000E+02   8.26000000000000000E+02   8.51000000000000000E+02
             8.76000000000000000E+02   9.01000000000000000E+02   9.26000000000000000E+02   9.51000000000000000E+02   9.76000000000000000E+02
             1.00100000000000000E+03   1.02600000000000000E+03   1.05100000000000000E+03   1.07600000000000000E+03   1.10100000000000000E+03
             1.12600000000000000E+03   1.15100000000000000E+03   1.17600000000000000E+03   1.20100000000000000E+03   1.22600000000000000E+03
             1.25100000000000000E+03   1.27600000000000000E+03   1.30100000000000000E+03   1.32600000000000000E+03   1.35100000000000000E+03
             1.37600000000000000E+03   1.40100000000000000E+03   1.42600000000000000E+03   1.45100000000000000E+03   1.47600000000000000E+03
             1.50100000000000000E+03   1.52600000000000000E+03   1.55100000000000000E+03   1.57600000000000000E+03   1.60100000000000000E+03
             1.62600000000000000E+03   1.65100000000000000E+03   1.67600000000000000E+03   1.70100000000000000E+03   1.72600000000000000E+03
             1.75100000000000000E+03   1.77600000000000000E+03   1.80100000000000000E+03   1.82600000000000000E+03   1.85100000000000000E+03
             1.87600000000000000E+03   1.90100000000000000E+03   1.92600000000000000E+03   1.95100000000000000E+03   1.97600000000000000E+03
             2.00100000000000000E+03   2.02600000000000000E+03   2.05100000000000000E+03   2.07600000000000000E+03   2.10100000000000000E+03
             2.12600000000000000E+03   2.15100000000000000E+03   2.17600000000000000E+03   2.20100000000000000E+03   2.22600000000000000E+03
             2.25100000000000000E+03   2.27600000000000000E+03   2.30100000000000000E+03   2.32600000000000000E+03   2.35100000000000000E+03
             2.37600000000000000E+03   2.40100000000000000E+03   2.42600000000000000E+03   2.45100000000000000E+03   2.47600000000000000E+03
             2.50100000000000000E+03   2.52600000000000000E+03   2.55100000000000000E+03   2.57600000000000000E+03   2.60100000000000000E+03
             2.62600000000000000E+03   2.65100000000000000E+03   2.67600000000000000E+03   2.70100000000000000E+03   2.72600000000000000E+03
             2.75100000000000000E+03   2.77600000000000000E+03   2.80100000000000000E+03   2.82600000000000000E+03   2.85100000000000000E+03
             2.87600000000000000E+03   2.90100000000000000E+03   2.92600000000000000E+03   2.95100000000000000E+03   2.97600000000000000E+03
             3.00100000000000000E+03   3.02600000000000000E+03   3.05100000000000000E+03   3.07600000000000000E+03   3.10100000000000000E+03
             3.12600000000000000E+03   3.15100000000000000E+03   3.17600000000000000E+03   3.20100000000000000E+03   3.22600000000000000E+03
             3.25100000000000000E+03   3.27600000000000000E+03   3.30100000000000000E+03   3.32600000000000000E+03   3.35100000000000000E+03
             3.37600000000000000E+03   3.40100000000000000E+03   3.42600000000000000E+03   3.45100000000000000E+03   3.47600000000000000E+03
             3.50100000000000000E+03   3.52600000000000000E+03   3.55100000000000000E+03   3.57600000000000000E+03   3.60100000000000000E+03
             3.62600000000000000E+03   3.65100000000000000E+03   3.67600000000000000E+03   3.70100000000000000E+03   3.72600000000000000E+03
             3.75100000000000000E+03   3.77600000000000000E+03   3.80100000000000000E+03   3.82600000000000000E+03   3.85100000000000000E+03
             3.87600000000000000E+03   3.90100000000000000E+03   3.92600000000000000E+03   3.95100000000000000E+03   3.97600000000000000E+03
             4.00100000000000000E+03   4.02600000000000000E+03   4.05100000000000000E+03   4.07600000000000000E+03   4.10100000000000000E+03
             4.12600000000000000E+03   4.15100000000000000E+03   4.17600000000000000E+03   4.20100000000000000E+03   4.22600000000000000E+03
             4.25100000000000000E+03   4.27600000000000000E+03   4.30100000000000000E+03   4.32600000000000000E+03   4.35100000000000000E+03
             4.37600000000000000E+03   4.40100000000000000E+03   4.42600000000000000E+03   4.45100000000000000E+03   4.47600000000000000E+03
             4.50100000000000000E+03   4.52600000000000000E+03   4.55100000000000000E+03   4.57600000000000000E+03   4.60100000000000000E+03
             4.62600000000000000E+03   4.65100000000000000E+03   4.67600000000000000E+03   4.70100000000000000E+03   4.72600000000000000E+03
             4.75100000000000000E+03   4.77600000000000000E+03   4.80100000000000000E+03   4.82600000000000000E+03   4.85100000000000000E+03
             4.87600000000000000E+03   4.90100000000000000E+03   4.92600000000000000E+03   4.95100000000000000E+03   4.97600000000000000E+03
             5.00100000000000000E+03   5.02600000000000000E+03   5.05100000000000000E+03   5.07600000000000000E+03   5.10100000000000000E+03
             5.12600000000000000E+03   5.15100000000000000E+03   5.17600000000000000E+03   5.20100000000000000E+03   5.22600000000000000E+03
             5.25100000000000000E+03   5.27600000000000000E+03   5.30100000000000000E+03   5.32600000000000000E+03   5.35100000000000000E+03
             5.37600000000000000E+03   5.40100000000000000E+03   5.42600000000000000E+03   5.45100000000000000E+03   5.47600000000000000E+03
             5.50100000000000000E+03   5.52600000000000000E+03   5.55100000000000000E+03   5.57600000000000000E+03   5.60100000000000000E+03
             5.62600000000000000E+03   5.65100000000000000E+03   5.67600000000000000E+03   5.70100000000000000E+03   5.72600000000000000E+03
             5.75100000000000000E+03   5.77600000000000000E+03   5.80100000000000000E+03   5.82600000000000000E+03   5.85100000000000000E+03
             5.87600000000000000E+03   5.90100000000000000E+03   5.92600000000000000E+03   5.95100000000000000E+03   5.97600000000000000E+03
             6.00100000000000000E+03   6.02600000000000000E+03   6.05100000000000000E+03   6.07600000000000000E+03   6.10100000000000000E+03
             6.12600000000000000E+03   6.15100000000000000E+03   6.17600000000000000E+03   6.20100000000000000E+03   6.22600000000000000E+03
             6.25100000000000000E+03   6.27600000000000000E+03   6.30100000000000000E+03   6.32600000000000000E+03   6.35100000000000000E+03
             6.37600000000000000E+03   6.40100000000000000E+03   6.42600000000000000E+03   6.45100000000000000E+03   6.47600000000000000E+03
             6.50100000000000000E+03   6.52600000000000000E+03   6.55100000000000000E+03   6.57600000000000000E+03   6.60100000000000000E+03
             6.62600000000000000E+03   6.65100000000000000E+03   6.67600000000000000E+03   6.70100000000000000E+03   6.72600000000000000E+03
             6.75100000000000000E+03   6.77600000000000000E+03   6.80100000000000000E+03   6.82600000000000000E+03   6.85100000000000000E+03
             6.87600000000000000E+03   6.90100000000000000E+03   6.92600000000000000E+03   6.95100000000000000E+03   6.97600000000000000E+03
             7.00100000000000000E+03   7.02600000000000000E+03   7.05100000000000000E+03   7.07600000000000000E+03   7.10100000000000000E+03
             7.12600000000000000E+03   7.15100000000000000E+03   7.17600000000000000E+03   7.20100000000000000E+03   7.22600000000000000E+03
             7.25100000000000000E+03   7.27600000000000000E+03   7.30100000000000000E+03   7.32600000000000000E+03   7.35100000000000000E+03
             7.37600000000000000E+03   7.40100000000000000E+03   7.42600000000000000E+03   7.45100000000000000E+03   7.47600000000000000E+03
             7.50100000000000000E+03
 ETA=    7   1.00000000000000000E+00   2.60000000000000000E+01   5.10000000000000000E+01   7.60000000000000000E+01   1.01000000000000000E+02
             1.26000000000000000E+02   1.51000000000000000E+02   1.76000000000000000E+02   2.01000000000000000E+02   2.26000000000000000E+02
             2.51000000000000000E+02   2.76000000000000000E+02   3.01000000000000000E+02   3.26000000000000000E+02   3.51000000000000000E+02
             3.76000000000000000E+02   4.01000000000000000E+02   4.26000000000000000E+02   4.51000000000000000E+02   4.76000000000000000E+02
             5.01000000000000000E+02   5.26000000000000000E+02   5.51000000000000000E+02   5.76000000000000000E+02   6.01000000000000000E+02
             6.26000000000000000E+02   6.51000000000000000E+02   6.76000000000000000E+02   7.01000000000000000E+02   7.26000000000000000E+02
             7.51000000000000000E+02   7.76000000000000000E+02   8.01000000000000000E+02   8.26000000000000000E+02   8.51000000000000000E+02
             8.76000000000000000E+02   9.01000000000000000E+02   9.26000000000000000E+02   9.51000000000000000E+02   9.76000000000000000E+02
             1.00100000000000000E+03   1.02600000000000000E+03   1.05100000000000000E+03   1.07600000000000000E+03   1.10100000000000000E+03
             1.12600000000000000E+03   1.15100000000000000E+03   1.17600000000000000E+03   1.20100000000000000E+03   1.22600000000000000E+03
             1.25100000000000000E+03   1.27600000000000000E+03   1.30100000000000000E+03   1.32600000000000000E+03   1.35100000000000000E+03
             1.37600000000000000E+03   1.40100000000000000E+03   1.42600000000000000E+03   1.45100000000000000E+03   1.47600000000000000E+03
             1.50100000000000000E+03   1.52600000000000000E+03   1.55100000000000000E+03   1.57600000000000000E+03   1.60100000000000000E+03
             1.62600000000000000E+03   1.65100000000000000E+03   1.67600000000000000E+03   1.70100000000000000E+03   1.72600000000000000E+03
             1.75100000000000000E+03   1.77600000000000000E+03   1.80100000000000000E+03   1.82600000000000000E+03   1.85100000000000000E+03
             1.87600000000000000E+03   1.90100000000000000E+03   1.92600000000000000E+03   1.95100000000000000E+03   1.97600000000000000E+03
             2.00100000000000000E+03   2.02600000000000000E+03   2.05100000000000000E+03   2.07600000000000000E+03   2.10100000000000000E+03
             2.12600000000000000E+03   2.15100000000000000E+03   2.17600000000000000E+03   2.20100000000000000E+03   2.22600000000000000E+03
             2.25100000000000000E+03   2.27600000000000000E+03   2.30100000000000000E+03   2.32600000000000000E+03   2.35100000000000000E+03
             2.37600000000000000E+03   2.40100000000000000E+03   2.42600000000000000E+03   2.45100000000000000E+03   2.47600000000000000E+03
             2.50100000000000000E+03   2.52600000000000000E+03   2.55100000000000000E+03   2.57600000000000000E+03   2.60100000000000000E+03
             2.62600000000000000E+03   2.65100000000000000E+03   2.67600000000000000E+03   2.70100000000000000E+03   2.72600000000000000E+03
             2.75100000000000000E+03   2.77600000000000000E+03   2.80100000000000000E+03   2.82600000000000000E+03   2.85100000000000000E+03
             2.87600000000000000E+03   2.90100000000000000E+03   2.92600000000000000E+03   2.95100000000000000E+03   2.97600000000000000E+03
             3.00100000000000000E+03   3.02600000000000000E+03   3.05100000000000000E+03   3.07600000000000000E+03   3.10100000000000000E+03
             3.12600000000000000E+03   3.15100000000000000E+03   3.17600000000000000E+03   3.20100000000000000E+03   3.22600000000000000E+03
             3.25100000000000000E+03   3.27600000000000000E+03   3.30100000000000000E+03   3.32600000000000000E+03   3.35100000000000000E+03
             3.37600000000000000E+03   3.40100000000000000E+03   3.42600000000000000E+03   3.45100000000000000E+03   3.47600000000000000E+03
             3.50100000000000000E+03   3.52600000000000000E+03   3.55100000000000000E+03   3.57600000000000000E+03   3.60100000000000000E+03
             3.62600000000000000E+03   3.65100000000000000E+03   3.67600000000000000E+03   3.70100000000000000E+03   3.72600000000000000E+03
             3.75100000000000000E+03   3.77600000000000000E+03   3.80100000000000000E+03   3.82600000000000000E+03   3.85100000000000000E+03
             3.87600000000000000E+03   3.90100000000000000E+03   3.92600000000000000E+03   3.95100000000000000E+03   3.97600000000000000E+03
             4.00100000000000000E+03   4.02600000000000000E+03   4.05100000000000000E+03   4.07600000000000000E+03   4.10100000000000000E+03
             4.12600000000000000E+03   4.15100000000000000E+03   4.17600000000000000E+03   4.20100000000000000E+03   4.22600000000000000E+03
             4.25100000000000000E+03   4.27600000000000000E+03   4.30100000000000000E+03   4.32600000000000000E+03   4.35100000000000000E+03
             4.37600000000000000E+03   4.40100000000000000E+03   4.42600000000000000E+03   4.45100000000000000E+03   4.47600000000000000E+03
             4.50100000000000000E+03   4.52600000000000000E+03   4.55100000000000000E+03   4.57600000000000000E+03   4.60100000000000000E+03
             4.62600000000000000E+03   4.65100000000000000E+03   4.67600000000000000E+03   4.70100000000000000E+03   4.72600000000000000E+03
             4.75100000000000000E+03   4.77600000000000000E+03   4.80100000000000000E+03   4.82600000000000000E+03   4.85100000000000000E+03
             4.87600000000000000E+03   4.90100000000000000E+03   4.92600000000000000E+03   4.95100000000000000E+03   4.97600000000000000E+03
             5.00100000000000000E+03   5.02600000000000000E+03   5.05100000000000000E+03   5.07600000000000000E+03   5.10100000000000000E+03
             5.12600000000000000E+03   5.15100000000000000E+03   5.17600000000000000E+03   5.20100000000000000E+03   5.22600000000000000E+03
             5.25100000000000000E+03   5.27600000000000000E+03   5.30100000000000000E+03   5.32600000000000000E+03   5.35100000000000000E+03
             5.37600000000000000E+03   5.40100000000000000E+03   5.42600000000000000E+03   5.45100000000000000E+03   5.47600000000000000E+03
             5.50100000000000000E+03   5.52600000000000000E+03   5.55100000000000000E+03   5.57600000000000000E+03   5.60100000000000000E+03
             5.62600000000000000E+03   5.65100000000000000E+03   5.67600000000000000E+03   5.70100000000000000E+03   5.72600000000000000E+03
             5.75100000000000000E+03   5.77600000000000000E+03   5.80100000000000000E+03   5.82600000000000000E+03   5.85100000000000000E+03
             5.87600000000000000E+03   5.90100000000000000E+03   5.92600000000000000E+03   5.95100000000000000E+03   5.97600000000000000E+03
             6.00100000000000000E+03   6.02600000000000000E+03   6.05100000000000000E+03   6.07600000000000000E+03   6.10100000000000000E+03
             6.12600000000000000E+03   6.15100000000000000E+03   6.17600000000000000E+03   6.20100000000000000E+03   6.22600000000000000E+03
             6.25100000000000000E+03   6.27600000000000000E+03   6.30100000000000000E+03   6.32600000000000000E+03   6.35100000000000000E+03
             6.37600000000000000E+03   6.40100000000000000E+03   6.42600000000000000E+03   6.45100000000000000E+03   6.47600000000000000E+03
             6.50100000000000000E+03   6.52600000000000000E+03   6.55100000000000000E+03   6.57600000000000000E+03   6.60100000000000000E+03
             6.62600000000000000E+03   6.65100000000000000E+03   6.67600000000000000E+03   6.70100000000000000E+03   6.72600000000000000E+03
             6.75100000000000000E+03   6.77600000000000000E+03   6.80100000000000000E+03   6.82600000000000000E+03   6.85100000000000000E+03
             6.87600000000000000E+03   6.90100000000000000E+03   6.92600000000000000E+03   6.95100000000000000E+03   6.97600000000000000E+03
             7.00100000000000000E+03   7.02600000000000000E+03   7.05100000000000000E+03   7.07600000000000000E+03   7.10100000000000000E+03
             7.12600000000000000E+03   7.15100000000000000E+03   7.17600000000000000E+03   7.20100000000000000E+03   7.22600000000000000E+03
             7.25100000000000000E+03   7.27600000000000000E+03   7.30100000000000000E+03   7.32600000000000000E+03   7.35100000000000000E+03
             7.37600000000000000E+03   7.40100000000000000E+03   7.42600000000000000E+03   7.45100000000000000E+03   7.47600000000000000E+03
             7.50100000000000000E+03
 ETA=    8   1.00000000000000000E+00   2.60000000000000000E+01   5.10000000000000000E+01   7.60000000000000000E+01   1.01000000000000000E+02
             1.26000000000000000E+02   1.51000000000000000E+02   1.76000000000000000E+02   2.01000000000000000E+02   2.26000000000000000E+02
             2.51000000000000000E+02   2.76000000000000000E+02   3.01000000000000000E+02   3.26000000000000000E+02   3.51000000000000000E+02
             3.76000000000000000E+02   4.01000000000000000E+02   4.26000000000000000E+02   4.51000000000000000E+02   4.76000000000000000E+02
             5.01000000000000000E+02   5.26000000000000000E+02   5.51000000000000000E+02   5.76000000000000000E+02   6.01000000000000000E+02
             6.26000000000000000E+02   6.51000000000000000E+02   6.76000000000000000E+02   7.01000000000000000E+02   7.26000000000000000E+02
             7.51000000000000000E+02   7.76000000000000000E+02   8.01000000000000000E+02   8.26000000000000000E+02   8.51000000000000000E+02
             8.76000000000000000E+02   9.01000000000000000E+02   9.26000000000000000E+02   9.51000000000000000E+02   9.76000000000000000E+02
             1.00100000000000000E+03   1.02600000000000000E+03   1.05100000000000000E+03   1.07600000000000000E+03   1.10100000000000000E+03
             1.12600000000000000E+03   1.15100000000000000E+03   1.17600000000000000E+03   1.20100000000000000E+03   1.22600000000000000E+03
             1.25100000000000000E+03   1.27600000000000000E+03   1.30100000000000000E+03   1.32600000000000000E+03   1.35100000000000000E+03
             1.37600000000000000E+03   1.40100000000000000E+03   1.42600000000000000E+03   1.45100000000000000E+03   1.47600000000000000E+03
             1.50100000000000000E+03   1.52600000000000000E+03   1.55100000000000000E+03   1.57600000000000000E+03   1.60100000000000000E+03
             1.62600000000000000E+03   1.65100000000000000E+03   1.67600000000000000E+03   1.70100000000000000E+03   1.72600000000000000E+03
             1.75100000000000000E+03   1.77600000000000000E+03   1.80100000000000000E+03   1.82600000000000000E+03   1.85100000000000000E+03
             1.87600000000000000E+03   1.90100000000000000E+03   1.92600000000000000E+03   1.95100000000000000E+03   1.97600000000000000E+03
             2.00100000000000000E+03   2.02600000000000000E+03   2.05100000000000000E+03   2.07600000000000000E+03   2.10100000000000000E+03
             2.12600000000000000E+03   2.15100000000000000E+03   2.17600000000000000E+03   2.20100000000000000E+03   2.22600000000000000E+03
             2.25100000000000000E+03   2.27600000000000000E+03   2.30100000000000000E+03   2.32600000000000000E+03   2.35100000000000000E+03
             2.37600000000000000E+03   2.40100000000000000E+03   2.42600000000000000E+03   2.45100000000000000E+03   2.47600000000000000E+03
             2.50100000000000000E+03   2.52600000000000000E+03   2.55100000000000000E+03   2.57600000000000000E+03   2.60100000000000000E+03
             2.62600000000000000E+03   2.65100000000000000E+03   2.67600000000000000E+03   2.70100000000000000E+03   2.72600000000000000E+03
             2.75100000000000000E+03   2.77600000000000000E+03   2.80100000000000000E+03   2.82600000000000000E+03   2.85100000000000000E+03
             2.87600000000000000E+03   2.90100000000000000E+03   2.92600000000000000E+03   2.95100000000000000E+03   2.97600000000000000E+03
             3.00100000000000000E+03   3.02600000000000000E+03   3.05100000000000000E+03   3.07600000000000000E+03   3.10100000000000000E+03
             3.12600000000000000E+03   3.15100000000000000E+03   3.17600000000000000E+03   3.20100000000000000E+03   3.22600000000000000E+03
             3.25100000000000000E+03   3.27600000000000000E+03   3.30100000000000000E+03   3.32600000000000000E+03   3.35100000000000000E+03
             3.37600000000000000E+03   3.40100000000000000E+03   3.42600000000000000E+03   3.45100000000000000E+03   3.47600000000000000E+03
             3.50100000000000000E+03   3.52600000000000000E+03   3.55100000000000000E+03   3.57600000000000000E+03   3.60100000000000000E+03
             3.62600000000000000E+03   3.65100000000000000E+03   3.67600000000000000E+03   3.70100000000000000E+03   3.72600000000000000E+03
             3.75100000000000000E+03   3.77600000000000000E+03   3.80100000000000000E+03   3.82600000000000000E+03   3.85100000000000000E+03
             3.87600000000000000E+03   3.90100000000000000E+03   3.92600000000000000E+03   3.95100000000000000E+03   3.97600000000000000E+03
             4.00100000000000000E+03   4.02600000000000000E+03   4.05100000000000000E+03   4.07600000000000000E+03   4.10100000000000000E+03
             4.12600000000000000E+03   4.15100000000000000E+03   4.17600000000000000E+03   4.20100000000000000E+03   4.22600000000000000E+03
             4.25100000000000000E+03   4.27600000000000000E+03   4.30100000000000000E+03   4.32600000000000000E+03   4.35100000000000000E+03
             4.37600000000000000E+03   4.40100000000000000E+03   4.42600000000000000E+03   4.45100000000000000E+03   4.47600000000000000E+03
             4.50100000000000000E+03   4.52600000000000000E+03   4.55100000000000000E+03   4.57600000000000000E+03   4.60100000000000000E+03
             4.62600000000000000E+03   4.65100000000000000E+03   4.67600000000000000E+03   4.70100000000000000E+03   4.72600000000000000E+03
             4.75100000000000000E+03   4.77600000000000000E+03   4.80100000000000000E+03   4.82600000000000000E+03   4.85100000000000000E+03
             4.87600000000000000E+03   4.90100000000000000E+03   4.92600000000000000E+03   4.95100000000000000E+03   4.97600000000000000E+03
             5.00100000000000000E+03   5.02600000000000000E+03   5.05100000000000000E+03   5.07600000000000000E+03   5.10100000000000000E+03
             5.12600000000000000E+03   5.15100000000000000E+03   5.17600000000000000E+03   5.20100000000000000E+03   5.22600000000000000E+03
             5.25100000000000000E+03   5.27600000000000000E+03   5.30100000000000000E+03   5.32600000000000000E+03   5.35100000000000000E+03
             5.37600000000000000E+03   5.40100000000000000E+03   5.42600000000000000E+03   5.45100000000000000E+03   5.47600000000000000E+03
             5.50100000000000000E+03   5.52600000000000000E+03   5.55100000000000000E+03   5.57600000000000000E+03   5.60100000000000000E+03
             5.62600000000000000E+03   5.65100000000000000E+03   5.67600000000000000E+03   5.70100000000000000E+03   5.72600000000000000E+03
             5.75100000000000000E+03   5.77600000000000000E+03   5.80100000000000000E+03   5.82600000000000000E+03   5.85100000000000000E+03
             5.87600000000000000E+03   5.90100000000000000E+03   5.92600000000000000E+03   5.95100000000000000E+03   5.97600000000000000E+03
             6.00100000000000000E+03   6.02600000000000000E+03   6.05100000000000000E+03   6.07600000000000000E+03   6.10100000000000000E+03
             6.12600000000000000E+03   6.15100000000000000E+03   6.17600000000000000E+03   6.20100000000000000E+03   6.22600000000000000E+03
             6.25100000000000000E+03   6.27600000000000000E+03   6.30100000000000000E+03   6.32600000000000000E+03   6.35100000000000000E+03
             6.37600000000000000E+03   6.40100000000000000E+03   6.42600000000000000E+03   6.45100000000000000E+03   6.47600000000000000E+03
             6.50100000000000000E+03   6.52600000000000000E+03   6.55100000000000000E+03   6.57600000000000000E+03   6.60100000000000000E+03
             6.62600000000000000E+03   6.65100000000000000E+03   6.67600000000000000E+03   6.70100000000000000E+03   6.72600000000000000E+03
             6.75100000000000000E+03   6.77600000000000000E+03   6.80100000000000000E+03   6.82600000000000000E+03   6.85100000000000000E+03
             6.87600000000000000E+03   6.90100000000000000E+03   6.92600000000000000E+03   6.95100000000000000E+03   6.97600000000000000E+03
             7.00100000000000000E+03   7.02600000000000000E+03   7.05100000000000000E+03   7.07600000000000000E+03   7.10100000000000000E+03
             7.12600000000000000E+03   7.15100000000000000E+03   7.17600000000000000E+03   7.20100000000000000E+03   7.22600000000000000E+03
             7.25100000000000000E+03   7.27600000000000000E+03   7.30100000000000000E+03   7.32600000000000000E+03   7.35100000000000000E+03
             7.37600000000000000E+03   7.40100000000000000E+03   7.42600000000000000E+03   7.45100000000000000E+03   7.47600000000000000E+03
             7.50100000000000000E+03
 ETA=    9   1.00000000000000000E+00   2.60000000000000000E+01   5.10000000000000000E+01   7.60000000000000000E+01   1.01000000000000000E+02
             1.26000000000000000E+02   1.51000000000000000E+02   1.76000000000000000E+02   2.01000000000000000E+02   2.26000000000000000E+02
             2.51000000000000000E+02   2.76000000000000000E+02   3.01000000000000000E+02   3.26000000000000000E+02   3.51000000000000000E+02
             3.76000000000000000E+02   4.01000000000000000E+02   4.26000000000000000E+02   4.51000000000000000E+02   4.76000000000000000E+02
             5.01000000000000000E+02   5.26000000000000000E+02   5.51000000000000000E+02   5.76000000000000000E+02   6.01000000000000000E+02
             6.26000000000000000E+02   6.51000000000000000E+02   6.76000000000000000E+02   7.01000000000000000E+02   7.26000000000000000E+02
             7.51000000000000000E+02   7.76000000000000000E+02   8.01000000000000000E+02   8.26000000000000000E+02   8.51000000000000000E+02
             8.76000000000000000E+02   9.01000000000000000E+02   9.26000000000000000E+02   9.51000000000000000E+02   9.76000000000000000E+02
             1.00100000000000000E+03   1.02600000000000000E+03   1.05100000000000000E+03   1.07600000000000000E+03   1.10100000000000000E+03
             1.12600000000000000E+03   1.15100000000000000E+03   1.17600000000000000E+03   1.20100000000000000E+03   1.22600000000000000E+03
             1.25100000000000000E+03   1.27600000000000000E+03   1.30100000000000000E+03   1.32600000000000000E+03   1.35100000000000000E+03
             1.37600000000000000E+03   1.40100000000000000E+03   1.42600000000000000E+03   1.45100000000000000E+03   1.47600000000000000E+03
             1.50100000000000000E+03   1.52600000000000000E+03   1.55100000000000000E+03   1.57600000000000000E+03   1.60100000000000000E+03
             1.62600000000000000E+03   1.65100000000000000E+03   1.67600000000000000E+03   1.70100000000000000E+03   1.72600000000000000E+03
             1.75100000000000000E+03   1.77600000000000000E+03   1.80100000000000000E+03   1.82600000000000000E+03   1.85100000000000000E+03
             1.87600000000000000E+03   1.90100000000000000E+03   1.92600000000000000E+03   1.95100000000000000E+03   1.97600000000000000E+03
             2.00100000000000000E+03   2.02600000000000000E+03   2.05100000000000000E+03   2.07600000000000000E+03   2.10100000000000000E+03
             2.12600000000000000E+03   2.15100000000000000E+03   2.17600000000000000E+03   2.20100000000000000E+03   2.22600000000000000E+03
             2.25100000000000000E+03   2.27600000000000000E+03   2.30100000000000000E+03   2.32600000000000000E+03   2.35100000000000000E+03
             2.37600000000000000E+03   2.40100000000000000E+03   2.42600000000000000E+03   2.45100000000000000E+03   2.47600000000000000E+03
             2.50100000000000000E+03   2.52600000000000000E+03   2.55100000000000000E+03   2.57600000000000000E+03   2.60100000000000000E+03
             2.62600000000000000E+03   2.65100000000000000E+03   2.67600000000000000E+03   2.70100000000000000E+03   2.72600000000000000E+03
             2.75100000000000000E+03   2.77600000000000000E+03   2.80100000000000000E+03   2.82600000000000000E+03   2.85100000000000000E+03
             2.87600000000000000E+03   2.90100000000000000E+03   2.92600000000000000E+03   2.95100000000000000E+03   2.97600000000000000E+03
             3.00100000000000000E+03   3.02600000000000000E+03   3.05100000000000000E+03   3.07600000000000000E+03   3.10100000000000000E+03
             3.12600000000000000E+03   3.15100000000000000E+03   3.17600000000000000E+03   3.20100000000000000E+03   3.22600000000000000E+03
             3.25100000000000000E+03   3.27600000000000000E+03   3.30100000000000000E+03   3.32600000000000000E+03   3.35100000000000000E+03
             3.37600000000000000E+03   3.40100000000000000E+03   3.42600000000000000E+03   3.45100000000000000E+03   3.47600000000000000E+03
             3.50100000000000000E+03   3.52600000000000000E+03   3.55100000000000000E+03   3.57600000000000000E+03   3.60100000000000000E+03
             3.62600000000000000E+03   3.65100000000000000E+03   3.67600000000000000E+03   3.70100000000000000E+03   3.72600000000000000E+03
             3.75100000000000000E+03   3.77600000000000000E+03   3.80100000000000000E+03   3.82600000000000000E+03   3.85100000000000000E+03
             3.87600000000000000E+03   3.90100000000000000E+03   3.92600000000000000E+03   3.95100000000000000E+03   3.97600000000000000E+03
             4.00100000000000000E+03   4.02600000000000000E+03   4.05100000000000000E+03   4.07600000000000000E+03   4.10100000000000000E+03
             4.12600000000000000E+03   4.15100000000000000E+03   4.17600000000000000E+03   4.20100000000000000E+03   4.22600000000000000E+03
             4.25100000000000000E+03   4.27600000000000000E+03   4.30100000000000000E+03   4.32600000000000000E+03   4.35100000000000000E+03
             4.37600000000000000E+03   4.40100000000000000E+03   4.42600000000000000E+03   4.45100000000000000E+03   4.47600000000000000E+03
             4.50100000000000000E+03   4.52600000000000000E+03   4.55100000000000000E+03   4.57600000000000000E+03   4.60100000000000000E+03
             4.62600000000000000E+03   4.65100000000000000E+03   4.67600000000000000E+03   4.70100000000000000E+03   4.72600000000000000E+03
             4.75100000000000000E+03   4.77600000000000000E+03   4.80100000000000000E+03   4.82600000000000000E+03   4.85100000000000000E+03
             4.87600000000000000E+03   4.90100000000000000E+03   4.92600000000000000E+03   4.95100000000000000E+03   4.97600000000000000E+03
             5.00100000000000000E+03   5.02600000000000000E+03   5.05100000000000000E+03   5.07600000000000000E+03   5.10100000000000000E+03
             5.12600000000000000E+03   5.15100000000000000E+03   5.17600000000000000E+03   5.20100000000000000E+03   5.22600000000000000E+03
             5.25100000000000000E+03   5.27600000000000000E+03   5.30100000000000000E+03   5.32600000000000000E+03   5.35100000000000000E+03
             5.37600000000000000E+03   5.40100000000000000E+03   5.42600000000000000E+03   5.45100000000000000E+03   5.47600000000000000E+03
             5.50100000000000000E+03   5.52600000000000000E+03   5.55100000000000000E+03   5.57600000000000000E+03   5.60100000000000000E+03
             5.62600000000000000E+03   5.65100000000000000E+03   5.67600000000000000E+03   5.70100000000000000E+03   5.72600000000000000E+03
             5.75100000000000000E+03   5.77600000000000000E+03   5.80100000000000000E+03   5.82600000000000000E+03   5.85100000000000000E+03
             5.87600000000000000E+03   5.90100000000000000E+03   5.92600000000000000E+03   5.95100000000000000E+03   5.97600000000000000E+03
             6.00100000000000000E+03   6.02600000000000000E+03   6.05100000000000000E+03   6.07600000000000000E+03   6.10100000000000000E+03
             6.12600000000000000E+03   6.15100000000000000E+03   6.17600000000000000E+03   6.20100000000000000E+03   6.22600000000000000E+03
             6.25100000000000000E+03   6.27600000000000000E+03   6.30100000000000000E+03   6.32600000000000000E+03   6.35100000000000000E+03
             6.37600000000000000E+03   6.40100000000000000E+03   6.42600000000000000E+03   6.45100000000000000E+03   6.47600000000000000E+03
             6.50100000000000000E+03   6.52600000000000000E+03   6.55100000000000000E+03   6.57600000000000000E+03   6.60100000000000000E+03
             6.62600000000000000E+03   6.65100000000000000E+03   6.67600000000000000E+03   6.70100000000000000E+03   6.72600000000000000E+03
             6.75100000000000000E+03   6.77600000000000000E+03   6.80100000000000000E+03   6.82600000000000000E+03   6.85100000000000000E+03
             6.87600000000000000E+03   6.90100000000000000E+03   6.92600000000000000E+03   6.95100000000000000E+03   6.97600000000000000E+03
             7.00100000000000000E+03   7.02600000000000000E+03   7.05100000000000000E+03   7.07600000000000000E+03   7.10100000000000000E+03
             7.12600000000000000E+03   7.15100000000000000E+03   7.17600000000000000E+03   7.20100000000000000E+03   7.22600000000000000E+03
             7.25100000000000000E+03   7.27600000000000000E+03   7.30100000000000000E+03   7.32600000000000000E+03   7.35100000000000000E+03
             7.37600000000000000E+03   7.40100000000000000E+03   7.42600000000000000E+03   7.45100000000000000E+03   7.47600000000000000E+03
             7.50100000000000000E+03
 ETA=   10   1.00000000000000000E+00   2.60000000000000000E+01   5.10000000000000000E+01   7.60000000000000000E+01   1.01000000000000000E+02
             1.26000000000000000E+02   1.51000000000000000E+02   1.76000000000000000E+02   2.01000000000000000E+02   2.26000000000000000E+02
             2.51000000000000000E+02   2.76000000000000000E+02   3.01000000000000000E+02   3.26000000000000000E+02   3.51000000000000000E+02
             3.76000000000000000E+02   4.01000000000000000E+02   4.26000000000000000E+02   4.51000000000000000E+02   4.76000000000000000E+02
             5.01000000000000000E+02   5.26000000000000000E+02   5.51000000000000000E+02   5.76000000000000000E+02   6.01000000000000000E+02
             6.26000000000000000E+02   6.51000000000000000E+02   6.76000000000000000E+02   7.01000000000000000E+02   7.26000000000000000E+02
             7.51000000000000000E+02   7.76000000000000000E+02   8.01000000000000000E+02   8.26000000000000000E+02   8.51000000000000000E+02
             8.76000000000000000E+02   9.01000000000000000E+02   9.26000000000000000E+02   9.51000000000000000E+02   9.76000000000000000E+02
             1.00100000000000000E+03   1.02600000000000000E+03   1.05100000000000000E+03   1.07600000000000000E+03   1.10100000000000000E+03
             1.12600000000000000E+03   1.15100000000000000E+03   1.17600000000000000E+03   1.20100000000000000E+03   1.22600000000000000E+03
             1.25100000000000000E+03   1.27600000000000000E+03   1.30100000000000000E+03   1.32600000000000000E+03   1.35100000000000000E+03
             1.37600000000000000E+03   1.40100000000000000E+03   1.42600000000000000E+03   1.45100000000000000E+03   1.47600000000000000E+03
             1.50100000000000000E+03   1.52600000000000000E+03   1.55100000000000000E+03   1.57600000000000000E+03   1.60100000000000000E+03
             1.62600000000000000E+03   1.65100000000000000E+03   1.67600000000000000E+03   1.70100000000000000E+03   1.72600000000000000E+03
             1.75100000000000000E+03   1.77600000000000000E+03   1.80100000000000000E+03   1.82600000000000000E+03   1.85100000000000000E+03
             1.87600000000000000E+03   1.90100000000000000E+03   1.92600000000000000E+03   1.95100000000000000E+03   1.97600000000000000E+03
             2.00100000000000000E+03   2.02600000000000000E+03   2.05100000000000000E+03   2.07600000000000000E+03   2.10100000000000000E+03
             2.12600000000000000E+03   2.15100000000000000E+03   2.17600000000000000E+03   2.20100000000000000E+03   2.22600000000000000E+03
             2.25100000000000000E+03   2.27600000000000000E+03   2.30100000000000000E+03   2.32600000000000000E+03   2.35100000000000000E+03
[...]
             5.57600000000000000E+03   5.57600000000000000E+03   5.57600000000000000E+03   5.57600000000000000E+03   5.57600000000000000E+03
             5.57600000000000000E+03   5.57600000000000000E+03   5.57600000000000000E+03   5.57600000000000000E+03   5.57600000000000000E+03
             5.57600000000000000E+03   5.57600000000000000E+03   5.57600000000000000E+03   5.57600000000000000E+03   5.57600000000000000E+03
             5.57600000000000000E+03   5.57600000000000000E+03   5.57600000000000000E+03   5.57600000000000000E+03   5.57600000000000000E+03
             5.57600000000000000E+03   5.57600000000000000E+03   5.57600000000000000E+03   5.57600000000000000E+03   5.57600000000000000E+03
             5.57600000000000000E+03   5.57600000000000000E+03   5.57600000000000000E+03   5.57600000000000000E+03   5.57600000000000000E+03
             5.57600000000000000E+03   5.57600000000000000E+03   5.57600000000000000E+03   5.57600000000000000E+03   5.57600000000000000E+03
             5.57600000000000000E+03   5.57600000000000000E+03   5.57600000000000000E+03   5.57600000000000000E+03   5.57600000000000000E+03
             5.57600000000000000E+03   5.57600000000000000E+03   5.57600000000000000E+03   5.57600000000000000E+03   5.57600000000000000E+03
             5.57600000000000000E+03   5.57600000000000000E+03   5.57600000000000000E+03   5.57600000000000000E+03   5.57600000000000000E+03
             5.57600000000000000E+03   5.57600000000000000E+03   5.57600000000000000E+03   5.57600000000000000E+03   5.57600000000000000E+03
             5.57600000000000000E+03   5.57600000000000000E+03   5.57600000000000000E+03   5.57600000000000000E+03   5.57600000000000000E+03
             5.57600000000000000E+03   5.57600000000000000E+03   5.57600000000000000E+03   5.57600000000000000E+03   5.57600000000000000E+03
             5.57600000000000000E+03   5.57600000000000000E+03   5.57600000000000000E+03   5.57600000000000000E+03   5.57600000000000000E+03
             5.57600000000000000E+03   5.57600000000000000E+03   5.57600000000000000E+03   5.57600000000000000E+03   5.57600000000000000E+03
             5.57600000000000000E+03   5.57600000000000000E+03   5.57600000000000000E+03   5.57600000000000000E+03   5.57600000000000000E+03
             5.57600000000000000E+03   5.57600000000000000E+03   5.57600000000000000E+03   5.57600000000000000E+03   5.57600000000000000E+03
             5.57600000000000000E+03   5.57600000000000000E+03   5.57600000000000000E+03   5.57600000000000000E+03   5.57600000000000000E+03
             5.57600000000000000E+03   5.57600000000000000E+03   5.57600000000000000E+03   5.57600000000000000E+03   5.57600000000000000E+03
             5.57600000000000000E+03   5.57600000000000000E+03   5.57600000000000000E+03   5.57600000000000000E+03   5.57600000000000000E+03
             5.57600000000000000E+03
 ETA=  225   5.60100000000000000E+03   5.60100000000000000E+03   5.60100000000000000E+03   5.60100000000000000E+03   5.60100000000000000E+03
             5.60100000000000000E+03   5.60100000000000000E+03   5.60100000000000000E+03   5.60100000000000000E+03   5.60100000000000000E+03
             5.60100000000000000E+03   5.60100000000000000E+03   5.60100000000000000E+03   5.60100000000000000E+03   5.60100000000000000E+03
             5.60100000000000000E+03   5.60100000000000000E+03   5.60100000000000000E+03   5.60100000000000000E+03   5.60100000000000000E+03
             5.60100000000000000E+03   5.60100000000000000E+03   5.60100000000000000E+03   5.60100000000000000E+03   5.60100000000000000E+03
             5.60100000000000000E+03   5.60100000000000000E+03   5.60100000000000000E+03   5.60100000000000000E+03   5.60100000000000000E+03
             5.60100000000000000E+03   5.60100000000000000E+03   5.60100000000000000E+03   5.60100000000000000E+03   5.60100000000000000E+03
             5.60100000000000000E+03   5.60100000000000000E+03   5.60100000000000000E+03   5.60100000000000000E+03   5.60100000000000000E+03
             5.60100000000000000E+03   5.60100000000000000E+03   5.60100000000000000E+03   5.60100000000000000E+03   5.60100000000000000E+03
             5.60100000000000000E+03   5.60100000000000000E+03   5.60100000000000000E+03   5.60100000000000000E+03   5.60100000000000000E+03
             5.60100000000000000E+03   5.60100000000000000E+03   5.60100000000000000E+03   5.60100000000000000E+03   5.60100000000000000E+03
             5.60100000000000000E+03   5.60100000000000000E+03   5.60100000000000000E+03   5.60100000000000000E+03   5.60100000000000000E+03
             5.60100000000000000E+03   5.60100000000000000E+03   5.60100000000000000E+03   5.60100000000000000E+03   5.60100000000000000E+03
             5.60100000000000000E+03   5.60100000000000000E+03   5.60100000000000000E+03   5.60100000000000000E+03   5.60100000000000000E+03
             5.60100000000000000E+03   5.60100000000000000E+03   5.60100000000000000E+03   5.60100000000000000E+03   5.60100000000000000E+03
             5.60100000000000000E+03   5.60100000000000000E+03   5.60100000000000000E+03   5.60100000000000000E+03   5.60100000000000000E+03
             5.60100000000000000E+03   5.60100000000000000E+03   5.60100000000000000E+03   5.60100000000000000E+03   5.60100000000000000E+03
             5.60100000000000000E+03   5.60100000000000000E+03   5.60100000000000000E+03   5.60100000000000000E+03   5.60100000000000000E+03
             5.60100000000000000E+03   5.60100000000000000E+03   5.60100000000000000E+03   5.60100000000000000E+03   5.60100000000000000E+03
             5.60100000000000000E+03   5.60100000000000000E+03   5.60100000000000000E+03   5.60100000000000000E+03   5.60100000000000000E+03
             5.60100000000000000E+03   5.60100000000000000E+03   5.60100000000000000E+03   5.60100000000000000E+03   5.60100000000000000E+03
             5.60100000000000000E+03   5.60100000000000000E+03   5.60100000000000000E+03   5.60100000000000000E+03   5.60100000000000000E+03
             5.60100000000000000E+03   5.60100000000000000E+03   5.60100000000000000E+03   5.60100000000000000E+03   5.60100000000000000E+03
             5.60100000000000000E+03   5.60100000000000000E+03   5.60100000000000000E+03   5.60100000000000000E+03   5.60100000000000000E+03
             5.60100000000000000E+03   5.60100000000000000E+03   5.60100000000000000E+03   5.60100000000000000E+03   5.60100000000000000E+03
             5.60100000000000000E+03   5.60100000000000000E+03   5.60100000000000000E+03   5.60100000000000000E+03   5.60100000000000000E+03
             5.60100000000000000E+03   5.60100000000000000E+03   5.60100000000000000E+03   5.60100000000000000E+03   5.60100000000000000E+03
             5.60100000000000000E+03   5.60100000000000000E+03   5.60100000000000000E+03   5.60100000000000000E+03   5.60100000000000000E+03
             5.60100000000000000E+03   5.60100000000000000E+03   5.60100000000000000E+03   5.60100000000000000E+03   5.60100000000000000E+03
             5.60100000000000000E+03   5.60100000000000000E+03   5.60100000000000000E+03   5.60100000000000000E+03   5.60100000000000000E+03
             5.60100000000000000E+03   5.60100000000000000E+03   5.60100000000000000E+03   5.60100000000000000E+03   5.60100000000000000E+03
             5.60100000000000000E+03   5.60100000000000000E+03   5.60100000000000000E+03   5.60100000000000000E+03   5.60100000000000000E+03
             5.60100000000000000E+03   5.60100000000000000E+03   5.60100000000000000E+03   5.60100000000000000E+03   5.60100000000000000E+03
             5.60100000000000000E+03   5.60100000000000000E+03   5.60100000000000000E+03   5.60100000000000000E+03   5.60100000000000000E+03
             5.60100000000000000E+03   5.60100000000000000E+03   5.60100000000000000E+03   5.60100000000000000E+03   5.60100000000000000E+03
             5.60100000000000000E+03   5.60100000000000000E+03   5.60100000000000000E+03   5.60100000000000000E+03   5.60100000000000000E+03
             5.60100000000000000E+03   5.60100000000000000E+03   5.60100000000000000E+03   5.60100000000000000E+03   5.60100000000000000E+03
             5.60100000000000000E+03   5.60100000000000000E+03   5.60100000000000000E+03   5.60100000000000000E+03   5.60100000000000000E+03
             5.60100000000000000E+03   5.60100000000000000E+03   5.60100000000000000E+03   5.60100000000000000E+03   5.60100000000000000E+03
             5.60100000000000000E+03   5.60100000000000000E+03   5.60100000000000000E+03   5.60100000000000000E+03   5.60100000000000000E+03
             5.60100000000000000E+03   5.60100000000000000E+03   5.60100000000000000E+03   5.60100000000000000E+03   5.60100000000000000E+03
             5.60100000000000000E+03   5.60100000000000000E+03   5.60100000000000000E+03   5.60100000000000000E+03   5.60100000000000000E+03
             5.60100000000000000E+03   5.60100000000000000E+03   5.60100000000000000E+03   5.60100000000000000E+03   5.60100000000000000E+03
             5.60100000000000000E+03   5.60100000000000000E+03   5.60100000000000000E+03   5.60100000000000000E+03   5.60100000000000000E+03
             5.60100000000000000E+03   5.60100000000000000E+03   5.60100000000000000E+03   5.60100000000000000E+03   5.60100000000000000E+03
             5.60100000000000000E+03   5.60100000000000000E+03   5.60100000000000000E+03   5.60100000000000000E+03   5.60100000000000000E+03
             5.60100000000000000E+03   5.60100000000000000E+03   5.60100000000000000E+03   5.60100000000000000E+03   5.60100000000000000E+03
             5.60100000000000000E+03   5.60100000000000000E+03   5.60100000000000000E+03   5.60100000000000000E+03   5.60100000000000000E+03
             5.60100000000000000E+03   5.60100000000000000E+03   5.60100000000000000E+03   5.60100000000000000E+03   5.60100000000000000E+03
             5.60100000000000000E+03   5.60100000000000000E+03   5.60100000000000000E+03   5.60100000000000000E+03   5.60100000000000000E+03
             5.60100000000000000E+03   5.60100000000000000E+03   5.60100000000000000E+03   5.60100000000000000E+03   5.60100000000000000E+03
             5.60100000000000000E+03   5.60100000000000000E+03   5.60100000000000000E+03   5.60100000000000000E+03   5.60100000000000000E+03
             5.60100000000000000E+03   5.60100000000000000E+03   5.60100000000000000E+03   5.60100000000000000E+03   5.60100000000000000E+03
             5.60100000000000000E+03   5.60100000000000000E+03   5.60100000000000000E+03   5.60100000000000000E+03   5.60100000000000000E+03
             5.60100000000000000E+03   5.60100000000000000E+03   5.60100000000000000E+03   5.60100000000000000E+03   5.60100000000000000E+03
             5.60100000000000000E+03   5.60100000000000000E+03   5.60100000000000000E+03   5.60100000000000000E+03   5.60100000000000000E+03
             5.60100000000000000E+03   5.60100000000000000E+03   5.60100000000000000E+03   5.60100000000000000E+03   5.60100000000000000E+03
             5.60100000000000000E+03   5.60100000000000000E+03   5.60100000000000000E+03   5.60100000000000000E+03   5.60100000000000000E+03
             5.60100000000000000E+03   5.60100000000000000E+03   5.60100000000000000E+03   5.60100000000000000E+03   5.60100000000000000E+03
             5.60100000000000000E+03   5.60100000000000000E+03   5.60100000000000000E+03   5.60100000000000000E+03   5.60100000000000000E+03
             5.60100000000000000E+03
 ETA=  226   5.62600000000000000E+03   5.62600000000000000E+03   5.62600000000000000E+03   5.62600000000000000E+03   5.62600000000000000E+03
             5.62600000000000000E+03   5.62600000000000000E+03   5.62600000000000000E+03   5.62600000000000000E+03   5.62600000000000000E+03
             5.62600000000000000E+03   5.62600000000000000E+03   5.62600000000000000E+03   5.62600000000000000E+03   5.62600000000000000E+03
             5.62600000000000000E+03   5.62600000000000000E+03   5.62600000000000000E+03   5.62600000000000000E+03   5.62600000000000000E+03
             5.62600000000000000E+03   5.62600000000000000E+03   5.62600000000000000E+03   5.62600000000000000E+03   5.62600000000000000E+03
             5.62600000000000000E+03   5.62600000000000000E+03   5.62600000000000000E+03   5.62600000000000000E+03   5.62600000000000000E+03
             5.62600000000000000E+03   5.62600000000000000E+03   5.62600000000000000E+03   5.62600000000000000E+03   5.62600000000000000E+03
             5.62600000000000000E+03   5.62600000000000000E+03   5.62600000000000000E+03   5.62600000000000000E+03   5.62600000000000000E+03
             5.62600000000000000E+03   5.62600000000000000E+03   5.62600000000000000E+03   5.62600000000000000E+03   5.62600000000000000E+03
             5.62600000000000000E+03   5.62600000000000000E+03   5.62600000000000000E+03   5.62600000000000000E+03   5.62600000000000000E+03
             5.62600000000000000E+03   5.62600000000000000E+03   5.62600000000000000E+03   5.62600000000000000E+03   5.62600000000000000E+03
             5.62600000000000000E+03   5.62600000000000000E+03   5.62600000000000000E+03   5.62600000000000000E+03   5.62600000000000000E+03
             5.62600000000000000E+03   5.62600000000000000E+03   5.62600000000000000E+03   5.62600000000000000E+03   5.62600000000000000E+03
             5.62600000000000000E+03   5.62600000000000000E+03   5.62600000000000000E+03   5.62600000000000000E+03   5.62600000000000000E+03
             5.62600000000000000E+03   5.62600000000000000E+03   5.62600000000000000E+03   5.62600000000000000E+03   5.62600000000000000E+03
             5.62600000000000000E+03   5.62600000000000000E+03   5.62600000000000000E+03   5.62600000000000000E+03   5.62600000000000000E+03
             5.62600000000000000E+03   5.62600000000000000E+03   5.62600000000000000E+03   5.62600000000000000E+03   5.62600000000000000E+03
             5.62600000000000000E+03   5.62600000000000000E+03   5.62600000000000000E+03   5.62600000000000000E+03   5.62600000000000000E+03
             5.62600000000000000E+03   5.62600000000000000E+03   5.62600000000000000E+03   5.62600000000000000E+03   5.62600000000000000E+03
             5.62600000000000000E+03   5.62600000000000000E+03   5.62600000000000000E+03   5.62600000000000000E+03   5.62600000000000000E+03
             5.62600000000000000E+03   5.62600000000000000E+03   5.62600000000000000E+03   5.62600000000000000E+03   5.62600000000000000E+03
             5.62600000000000000E+03   5.62600000000000000E+03   5.62600000000000000E+03   5.62600000000000000E+03   5.62600000000000000E+03
             5.62600000000000000E+03   5.62600000000000000E+03   5.62600000000000000E+03   5.62600000000000000E+03   5.62600000000000000E+03
             5.62600000000000000E+03   5.62600000000000000E+03   5.62600000000000000E+03   5.62600000000000000E+03   5.62600000000000000E+03
             5.62600000000000000E+03   5.62600000000000000E+03   5.62600000000000000E+03   5.62600000000000000E+03   5.62600000000000000E+03
             5.62600000000000000E+03   5.62600000000000000E+03   5.62600000000000000E+03   5.62600000000000000E+03   5.62600000000000000E+03
             5.62600000000000000E+03   5.62600000000000000E+03   5.62600000000000000E+03   5.62600000000000000E+03   5.62600000000000000E+03
             5.62600000000000000E+03   5.62600000000000000E+03   5.62600000000000000E+03   5.62600000000000000E+03   5.62600000000000000E+03
             5.62600000000000000E+03   5.62600000000000000E+03   5.62600000000000000E+03   5.62600000000000000E+03   5.62600000000000000E+03
             5.62600000000000000E+03   5.62600000000000000E+03   5.62600000000000000E+03   5.62600000000000000E+03   5.62600000000000000E+03
             5.62600000000000000E+03   5.62600000000000000E+03   5.62600000000000000E+03   5.62600000000000000E+03   5.62600000000000000E+03
             5.62600000000000000E+03   5.62600000000000000E+03   5.62600000000000000E+03   5.62600000000000000E+03   5.62600000000000000E+03
             5.62600000000000000E+03   5.62600000000000000E+03   5.62600000000000000E+03   5.62600000000000000E+03   5.62600000000000000E+03
             5.62600000000000000E+03   5.62600000000000000E+03   5.62600000000000000E+03   5.62600000000000000E+03   5.62600000000000000E+03
             5.62600000000000000E+03   5.62600000000000000E+03   5.62600000000000000E+03   5.62600000000000000E+03   5.62600000000000000E+03
             5.62600000000000000E+03   5.62600000000000000E+03   5.62600000000000000E+03   5.62600000000000000E+03   5.62600000000000000E+03
             5.62600000000000000E+03   5.62600000000000000E+03   5.62600000000000000E+03   5.62600000000000000E+03   5.62600000000000000E+03
             5.62600000000000000E+03   5.62600000000000000E+03   5.62600000000000000E+03   5.62600000000000000E+03   5.62600000000000000E+03
             5.62600000000000000E+03   5.62600000000000000E+03   5.62600000000000000E+03   5.62600000000000000E+03   5.62600000000000000E+03
             5.62600000000000000E+03   5.62600000000000000E+03   5.62600000000000000E+03   5.62600000000000000E+03   5.62600000000000000E+03
             5.62600000000000000E+03   5.62600000000000000E+03   5.62600000000000000E+03   5.62600000000000000E+03   5.62600000000000000E+03
             5.62600000000000000E+03   5.62600000000000000E+03   5.62600000000000000E+03   5.62600000000000000E+03   5.62600000000000000E+03
             5.62600000000000000E+03   5.62600000000000000E+03   5.62600000000000000E+03   5.62600000000000000E+03   5.62600000000000000E+03
             5.62600000000000000E+03   5.62600000000000000E+03   5.62600000000000000E+03   5.62600000000000000E+03   5.62600000000000000E+03
             5.62600000000000000E+03   5.62600000000000000E+03   5.62600000000000000E+03   5.62600000000000000E+03   5.62600000000000000E+03
             5.62600000000000000E+03   5.62600000000000000E+03   5.62600000000000000E+03   5.62600000000000000E+03   5.62600000000000000E+03
             5.62600000000000000E+03   5.62600000000000000E+03   5.62600000000000000E+03   5.62600000000000000E+03   5.62600000000000000E+03
             5.62600000000000000E+03   5.62600000000000000E+03   5.62600000000000000E+03   5.62600000000000000E+03   5.62600000000000000E+03
             5.62600000000000000E+03   5.62600000000000000E+03   5.62600000000000000E+03   5.62600000000000000E+03   5.62600000000000000E+03
             5.62600000000000000E+03   5.62600000000000000E+03   5.62600000000000000E+03   5.62600000000000000E+03   5.62600000000000000E+03
             5.62600000000000000E+03   5.62600000000000000E+03   5.62600000000000000E+03   5.62600000000000000E+03   5.62600000000000000E+03
             5.62600000000000000E+03   5.62600000000000000E+03   5.62600000000000000E+03   5.62600000000000000E+03   5.62600000000000000E+03
             5.62600000000000000E+03   5.62600000000000000E+03   5.62600000000000000E+03   5.62600000000000000E+03   5.62600000000000000E+03
             5.62600000000000000E+03   5.62600000000000000E+03   5.62600000000000000E+03   5.62600000000000000E+03   5.62600000000000000E+03
             5.62600000000000000E+03   5.62600000000000000E+03   5.62600000000000000E+03   5.62600000000000000E+03   5.62600000000000000E+03
             5.62600000000000000E+03   5.62600000000000000E+03   5.62600000000000000E+03   5.62600000000000000E+03   5.62600000000000000E+03
             5.62600000000000000E+03   5.62600000000000000E+03   5.62600000000000000E+03   5.62600000000000000E+03   5.62600000000000000E+03
             5.62600000000000000E+03   5.62600000000000000E+03   5.62600000000000000E+03   5.62600000000000000E+03   5.62600000000000000E+03
             5.62600000000000000E+03   5.62600000000000000E+03   5.62600000000000000E+03   5.62600000000000000E+03   5.62600000000000000E+03
             5.62600000000000000E+03   5.62600000000000000E+03   5.62600000000000000E+03   5.62600000000000000E+03   5.62600000000000000E+03
             5.62600000000000000E+03
