*
* Deltares, Delft3D-RGFGRID Version 4.18.01.18383, Sep  7 2011, 14:23:22
* File creation date: 2013-10-24, 08:44:44
*
